Global frequency set at 1000000000000 ticks per second
warn: DRAM device capacity (8192 Mbytes) does not match the address range assigned (512 Mbytes)
      0: system.cpu: initializing CGRA Dcache ports
      0: system.cpu: Setting Up CGRA
      0: system.cpu: CGRA instantiated
0: system.remote_gdb: listening for remote gdb on port 7000
gem5 Simulator System.  http://gem5.org
gem5 is copyrighted software; use the --copyright option for details.

gem5 version 20.1.0.4
gem5 compiled Jun 13 2021 23:35:21
gem5 started Jun 13 2021 23:36:01
gem5 executing on en4181851l, pid 463423
command line: /home/local/ASUAD/quoclon1/CCF_INS/ins3/gem5/build/ARM/gem5.opt --debug-flags=CGRA,CGRA_Execute,CGRA_Detailed /home/local/ASUAD/quoclon1/CCF_INS/ins3/gem5/configs/example/se_Vinh.py -n 1 --cpu-type CGRA4x4R4torus -c ./add_small -o 16

**** REAL SIMULATION ****
warn: membus.slave is deprecated. `slave` is now called `cpu_side_ports`
warn: membus.slave is deprecated. `slave` is now called `cpu_side_ports`
warn: membus.slave is deprecated. `slave` is now called `cpu_side_ports`
warn: membus.slave is deprecated. `slave` is now called `cpu_side_ports`
warn: membus.slave is deprecated. `slave` is now called `cpu_side_ports`
warn: membus.master is deprecated. `master` is now called `mem_side_ports`
warn: No dot file generated. Please install pydot to generate the dot file and pdf.
info: Entering event queue @ 0.  Starting simulation...
info: Increasing stack size by one page.
warn: ignoring syscall mprotect(...)
createCGRA
checkTotalLoops
from cgra.c Initialize Parameters

**********EPISIZE 48*********

**********PROSIZE 768*********

**********KERNSIZE 48*********

******SIZE OF UNSIGNED LONG4*****

******SIZE OF UNSIGNED LONG LONG8*****

*******************before while loop**************

************XDIM and YDim are 4, 4
Loop Count: -2
From FILE: PROLOGPC= a47f0, EPILOGPC=a4668,  KernelPC=a5ff8
Main thread calling CGRA thread...


accelerateOnCGRA
configureCGRA

loopno = 1
Core will execute loop 1 on CGRA


runOnCGRA
40072000: system.cpu: ************************Setting UP the CGRA************
40072000: system.cpu: Inside Setup_CGRA_Execution
40072000: system.cpu: CGRA: OLD PC: 10e08
40072000: system.cpu: Loop count is 14
40072000: system.cpu: Epilog Length is 3
40072000: system.cpu: LiveVar_St_Epilog Length is 1
40072000: system.cpu: II is 3
40072000: system.cpu: Epilog count is  0
40072000: system.cpu: Prolog count is  1
40072000: system.cpu: Kernel Counter is  14
40072000: system.cpu: Prolog PC is a47f0
,40072000: system.cpu: Kernel PC is a5ff8
40072000: system.cpu: Epilog PC is a4668
40072000: system.cpu: CGRA PARAMETERS: PROLOG= 48, EPILOG=3, II=3, KernelCounter=14
40072000: system.cpu: CGRA PARAMETERS: PROLOG= 48, EPILOG=3, II=3, KernelCounter=14
40072000: system.cpu: CGRA PARAMETERS: PROLOGPC= a47f0, EPILOGPC=a4668,  KernelPC=a5ff8
40072000: system.cpu: CGRA PARAMETERS: PROLOGPC= a47f0, EPILOGPC=a4668,  KernelPC=a5ff8
40072000: system.cpu: CGRA PC : a47f0
40072000: system.cpu: **********************CGRA Execution is started**************************** 
40072000: system.cpu: 
Executing 1 CGRA Cycle.
40072000: system.cpu: 
Exiting 1 CGRA Cycle.
40072500: system.cpu: Inside CGRA Execution else statement.
40072500: system.cpu: Inside CGRA_Execution block.
40072500: system.cpu: 
CALL IN NOW CGRA_Execution.
40072500: global: 
******** DB INPUT2 ReadAddress0************
40072500: global: 
IN READ REGFILE R0 = 0
40072500: global: R0: 0	R1: 0	R2: 0	R3: 0
40072500: global: 
******** DB INPUT2 ReadAddress0************
40072500: global: 
IN READ REGFILE R0 = 0
40072500: global: R0: 0	R1: 0	R2: 0	R3: 0
40072500: global: 
******** DB INPUT2 ReadAddress0************
40072500: global: 
IN READ REGFILE R0 = 0
40072500: global: R0: 0	R1: 0	R2: 0	R3: 0
40072500: global: 
******** DB INPUT2 ReadAddress0************
40072500: global: 
IN READ REGFILE R0 = 0
40072500: global: R0: 0	R1: 0	R2: 0	R3: 0
40072500: global: 
******** DB INPUT2 ReadAddress0************
40072500: global: 
IN READ REGFILE R0 = 0
40072500: global: R0: 0	R1: 0	R2: 0	R3: 0
40072500: global: 
******** DB INPUT2 ReadAddress0************
40072500: global: 
IN READ REGFILE R0 = 0
40072500: global: R0: 0	R1: 0	R2: 0	R3: 0
40072500: global: 
******** DB INPUT2 ReadAddress0************
40072500: global: 
IN READ REGFILE R0 = 0
40072500: global: R0: 0	R1: 0	R2: 0	R3: 0
40072500: global: 
******** DB INPUT2 ReadAddress0************
40072500: global: 
IN READ REGFILE R0 = 0
40072500: global: R0: 0	R1: 0	R2: 0	R3: 0
40072500: global: 
******** DB INPUT2 ReadAddress0************
40072500: global: 
IN READ REGFILE R0 = 0
40072500: global: R0: 0	R1: 0	R2: 0	R3: 0
40072500: global: 
******** DB INPUT2 ReadAddress0************
40072500: global: 
IN READ REGFILE R0 = 0
40072500: global: R0: 0	R1: 0	R2: 0	R3: 0
40072500: global: 
******** DB INPUT2 ReadAddress0************
40072500: global: 
IN READ REGFILE R0 = 0
40072500: global: R0: 0	R1: 0	R2: 0	R3: 0
40072500: global: 
******** DB INPUT2 ReadAddress0************
40072500: global: 
IN READ REGFILE R0 = 0
40072500: global: R0: 0	R1: 0	R2: 0	R3: 0
40072500: global: 
******** DB INPUT2 ReadAddress0************
40072500: global: 
IN READ REGFILE R0 = 0
40072500: global: R0: 0	R1: 0	R2: 0	R3: 0
40072500: global: 
******** DB INPUT2 ReadAddress0************
40072500: global: 
IN READ REGFILE R0 = 0
40072500: global: R0: 0	R1: 0	R2: 0	R3: 0
40072500: global: 
******** DB INPUT2 ReadAddress0************
40072500: global: 
IN READ REGFILE R0 = 0
40072500: global: R0: 0	R1: 0	R2: 0	R3: 0
40072500: global: 
******** DB INPUT2 ReadAddress0************
40072500: global: 
IN READ REGFILE R0 = 0
40072500: global: R0: 0	R1: 0	R2: 0	R3: 0

*********** CGRA EXECUTE - PRINT C ****************

Reading mem from PE 0
40072500: system.cpu: memdata in execute = 120
40072500: system.cpu: Ins: 4529864704, 10e004000 @ PE 0
40072500: global: Predictor bit: 1	 Opcode: 0
40072500: global: 
Input1 = 0	Input2 = 0
40072500: global: 
******** Setting Configuration as 0************
40072500: global: 
************** WE *****************
40072500: global: Distance is: 0
Reading mem from PE 1
40072500: system.cpu: memdata in execute = 120
40072500: system.cpu: Ins: 4529864704, 10e004000 @ PE 1
40072500: global: Predictor bit: 1	 Opcode: 0
40072500: global: 
Input1 = 0	Input2 = 0
40072500: global: 
******** Setting Configuration as 0************
40072500: global: 
************** WE *****************
40072500: global: Distance is: 0
Reading mem from PE 2
40072500: system.cpu: memdata in execute = 120
40072500: system.cpu: Ins: 4529864704, 10e004000 @ PE 2
40072500: global: Predictor bit: 1	 Opcode: 0
40072500: global: 
Input1 = 0	Input2 = 0
40072500: global: 
******** Setting Configuration as 0************
40072500: global: 
************** WE *****************
40072500: global: Distance is: 0
Reading mem from PE 3
40072500: system.cpu: memdata in execute = 120
40072500: system.cpu: Ins: 4529864704, 10e004000 @ PE 3
40072500: global: Predictor bit: 1	 Opcode: 0
40072500: global: 
Input1 = 0	Input2 = 0
40072500: global: 
******** Setting Configuration as 0************
40072500: global: 
************** WE *****************
40072500: global: Distance is: 0
Reading mem from PE 4
40072500: system.cpu: memdata in execute = 120
40072500: system.cpu: Ins: 4529864704, 10e004000 @ PE 4
40072500: global: Predictor bit: 1	 Opcode: 0
40072500: global: 
Input1 = 0	Input2 = 0
40072500: global: 
******** Setting Configuration as 0************
40072500: global: 
************** WE *****************
40072500: global: Distance is: 0
Reading mem from PE 5
40072500: system.cpu: memdata in execute = 120
40072500: system.cpu: Ins: 4529864704, 10e004000 @ PE 5
40072500: global: Predictor bit: 1	 Opcode: 0
40072500: global: 
Input1 = 0	Input2 = 0
40072500: global: 
******** Setting Configuration as 0************
40072500: global: 
************** WE *****************
40072500: global: Distance is: 0
Reading mem from PE 6
40072500: system.cpu: memdata in execute = 120
40072500: system.cpu: Ins: 4529864704, 10e004000 @ PE 6
40072500: global: Predictor bit: 1	 Opcode: 0
40072500: global: 
Input1 = 0	Input2 = 0
40072500: global: 
******** Setting Configuration as 0************
40072500: global: 
************** WE *****************
40072500: global: Distance is: 0
Reading mem from PE 7
40072500: system.cpu: memdata in execute = 120
40072500: system.cpu: Ins: 4529864704, 10e004000 @ PE 7
40072500: global: Predictor bit: 1	 Opcode: 0
40072500: global: 
Input1 = 0	Input2 = 0
40072500: global: 
******** Setting Configuration as 0************
40072500: global: 
************** WE *****************
40072500: global: Distance is: 0
Reading mem from PE 8
40072500: system.cpu: memdata in execute = 120
40072500: system.cpu: Ins: 4529864704, 10e004000 @ PE 8
40072500: global: Predictor bit: 1	 Opcode: 0
40072500: global: 
Input1 = 0	Input2 = 0
40072500: global: 
******** Setting Configuration as 0************
40072500: global: 
************** WE *****************
40072500: global: Distance is: 0
Reading mem from PE 9
40072500: system.cpu: memdata in execute = 120
40072500: system.cpu: Ins: 4529864704, 10e004000 @ PE 9
40072500: global: Predictor bit: 1	 Opcode: 0
40072500: global: 
Input1 = 0	Input2 = 0
40072500: global: 
******** Setting Configuration as 0************
40072500: global: 
************** WE *****************
40072500: global: Distance is: 0
Reading mem from PE 10
40072500: system.cpu: memdata in execute = 120
40072500: system.cpu: Ins: 4529864704, 10e004000 @ PE 10
40072500: global: Predictor bit: 1	 Opcode: 0
40072500: global: 
Input1 = 0	Input2 = 0
40072500: global: 
******** Setting Configuration as 0************
40072500: global: 
************** WE *****************
40072500: global: Distance is: 0
Reading mem from PE 11
40072500: system.cpu: memdata in execute = 120
40072500: system.cpu: Ins: 4529864704, 10e004000 @ PE 11
40072500: global: Predictor bit: 1	 Opcode: 0
40072500: global: 
Input1 = 0	Input2 = 0
40072500: global: 
******** Setting Configuration as 0************
40072500: global: 
************** WE *****************
40072500: global: Distance is: 0
Reading mem from PE 12
40072500: system.cpu: memdata in execute = 120
40072500: system.cpu: Ins: 4529864704, 10e004000 @ PE 12
40072500: global: Predictor bit: 1	 Opcode: 0
40072500: global: 
Input1 = 0	Input2 = 0
40072500: global: 
******** Setting Configuration as 0************
40072500: global: 
************** WE *****************
40072500: global: Distance is: 0
Reading mem from PE 13
40072500: system.cpu: memdata in execute = 120
40072500: system.cpu: Ins: 4529864704, 10e004000 @ PE 13
40072500: global: Predictor bit: 1	 Opcode: 0
40072500: global: 
Input1 = 0	Input2 = 0
40072500: global: 
******** Setting Configuration as 0************
40072500: global: 
************** WE *****************
40072500: global: Distance is: 0
Reading mem from PE 14
40072500: system.cpu: memdata in execute = 120
40072500: system.cpu: Ins: 4529864704, 10e004000 @ PE 14
40072500: global: Predictor bit: 1	 Opcode: 0
40072500: global: 
Input1 = 0	Input2 = 0
40072500: global: 
******** Setting Configuration as 0************
40072500: global: 
************** WE *****************
40072500: global: Distance is: 0
Reading mem from PE 15
40072500: system.cpu: memdata in execute = 120
40072500: system.cpu: Ins: 4529864704, 10e004000 @ PE 15
40072500: global: Predictor bit: 1	 Opcode: 0
40072500: global: 
Input1 = 0	Input2 = 0
40072500: global: 
******** Setting Configuration as 0************
40072500: global: 
************** WE *****************
40072500: global: Distance is: 0
40072500: system.cpu: CGRA advanceTime complete.
40072500: system.cpu: *******IN ADVANCE PC******
40072500: system.cpu: build/ARM/cpu/atomiccgra/atomiccgra.cc,CGRA_advancePC,1727,PC:a47f0
40072500: system.cpu: Passed Complete Drain().
40072500: system.cpu: Make latency status=1.
40072500: system.cpu: Inside status idle.
40072500: system.cpu: Exiting schedule events
40072500: system.cpu: We are here after Execution
40073000: system.cpu: Inside CGRA Execution else statement.
40073000: system.cpu: Inside CGRA_Execution block.
40073000: system.cpu: 
CALL IN NOW CGRA_Execution.
40073000: global: 
******** DB INPUT2 ReadAddress0************
40073000: global: 
IN READ REGFILE R0 = 0
40073000: global: R0: 0	R1: 0	R2: 0	R3: 0

*********** CGRA EXECUTE - PRINT C ****************

Reading mem from PE 0
40073000: system.cpu: memdata in execute = 120
40073000: system.cpu: Ins: 4798301760, 11e004640 @ PE 0
40073000: global: Predictor bit: 1	 Opcode: 1
40073000: global: 
Input1 = 1600	Input2 = 0
40073000: global: 
******** LDI IN THIS PE 1600************
40073000: global: 
************** WE *****************
40073000: global: 
WRITE: REG NUMBER: 0 dist: 0
40073000: global: R0: 1600	R1: 0	R2: 0	R3: 0
40073000: global: 
WRITE: FPREG NUMBER: 0 dist: 0
40073000: global: FPR0: 1600	FPR1: 0	FPR2: 0	FPR3: 0
40073000: global: Writing output 1600 to register 0
40073000: global: Distance is: 0
Reading mem from PE 1
40073000: system.cpu: memdata in execute = 120
40073000: system.cpu: Ins: 6306136064, 177e00000 @ PE 1
40073000: global: Predictor bit: 0	 Opcode: 7
40073000: global: CGRA: NOOP.Execute()
40073000: global: Distance is: 0
Reading mem from PE 2
40073000: system.cpu: memdata in execute = 120
40073000: system.cpu: Ins: 6306136064, 177e00000 @ PE 2
40073000: global: Predictor bit: 0	 Opcode: 7
40073000: global: CGRA: NOOP.Execute()
40073000: global: Distance is: 0
Reading mem from PE 3
40073000: system.cpu: memdata in execute = 120
40073000: system.cpu: Ins: 6306136064, 177e00000 @ PE 3
40073000: global: Predictor bit: 0	 Opcode: 7
40073000: global: CGRA: NOOP.Execute()
40073000: global: Distance is: 0
Reading mem from PE 4
40073000: system.cpu: memdata in execute = 120
40073000: system.cpu: Ins: 6306136064, 177e00000 @ PE 4
40073000: global: Predictor bit: 0	 Opcode: 7
40073000: global: CGRA: NOOP.Execute()
40073000: global: Distance is: 0
Reading mem from PE 5
40073000: system.cpu: memdata in execute = 120
40073000: system.cpu: Ins: 6306136064, 177e00000 @ PE 5
40073000: global: Predictor bit: 0	 Opcode: 7
40073000: global: CGRA: NOOP.Execute()
40073000: global: Distance is: 0
Reading mem from PE 6
40073000: system.cpu: memdata in execute = 120
40073000: system.cpu: Ins: 6306136064, 177e00000 @ PE 6
40073000: global: Predictor bit: 0	 Opcode: 7
40073000: global: CGRA: NOOP.Execute()
40073000: global: Distance is: 0
Reading mem from PE 7
40073000: system.cpu: memdata in execute = 120
40073000: system.cpu: Ins: 6306136064, 177e00000 @ PE 7
40073000: global: Predictor bit: 0	 Opcode: 7
40073000: global: CGRA: NOOP.Execute()
40073000: global: Distance is: 0
Reading mem from PE 8
40073000: system.cpu: memdata in execute = 120
40073000: system.cpu: Ins: 6306136064, 177e00000 @ PE 8
40073000: global: Predictor bit: 0	 Opcode: 7
40073000: global: CGRA: NOOP.Execute()
40073000: global: Distance is: 0
Reading mem from PE 9
40073000: system.cpu: memdata in execute = 120
40073000: system.cpu: Ins: 6306136064, 177e00000 @ PE 9
40073000: global: Predictor bit: 0	 Opcode: 7
40073000: global: CGRA: NOOP.Execute()
40073000: global: Distance is: 0
Reading mem from PE 10
40073000: system.cpu: memdata in execute = 120
40073000: system.cpu: Ins: 6306136064, 177e00000 @ PE 10
40073000: global: Predictor bit: 0	 Opcode: 7
40073000: global: CGRA: NOOP.Execute()
40073000: global: Distance is: 0
Reading mem from PE 11
40073000: system.cpu: memdata in execute = 120
40073000: system.cpu: Ins: 6306136064, 177e00000 @ PE 11
40073000: global: Predictor bit: 0	 Opcode: 7
40073000: global: CGRA: NOOP.Execute()
40073000: global: Distance is: 0
Reading mem from PE 12
40073000: system.cpu: memdata in execute = 120
40073000: system.cpu: Ins: 6306136064, 177e00000 @ PE 12
40073000: global: Predictor bit: 0	 Opcode: 7
40073000: global: CGRA: NOOP.Execute()
40073000: global: Distance is: 0
Reading mem from PE 13
40073000: system.cpu: memdata in execute = 120
40073000: system.cpu: Ins: 6306136064, 177e00000 @ PE 13
40073000: global: Predictor bit: 0	 Opcode: 7
40073000: global: CGRA: NOOP.Execute()
40073000: global: Distance is: 0
Reading mem from PE 14
40073000: system.cpu: memdata in execute = 120
40073000: system.cpu: Ins: 6306136064, 177e00000 @ PE 14
40073000: global: Predictor bit: 0	 Opcode: 7
40073000: global: CGRA: NOOP.Execute()
40073000: global: Distance is: 0
Reading mem from PE 15
40073000: system.cpu: memdata in execute = 120
40073000: system.cpu: Ins: 6306136064, 177e00000 @ PE 15
40073000: global: Predictor bit: 0	 Opcode: 7
40073000: global: CGRA: NOOP.Execute()
40073000: global: Distance is: 0
40073000: system.cpu: CGRA advanceTime complete.
40073000: system.cpu: *******IN ADVANCE PC******
40073000: system.cpu: build/ARM/cpu/atomiccgra/atomiccgra.cc,CGRA_advancePC,1727,PC:a4870
40073000: system.cpu: Passed Complete Drain().
40073000: system.cpu: Make latency status=1.
40073000: system.cpu: Inside status idle.
40073000: system.cpu: Exiting schedule events
40073000: system.cpu: We are here after Execution
40073500: system.cpu: Inside CGRA Execution else statement.
40073500: system.cpu: Inside CGRA_Execution block.
40073500: system.cpu: 
CALL IN NOW CGRA_Execution.
40073500: global: 
******** DB INPUT2 ReadAddress0************
40073500: global: 
IN READ REGFILE R0 = 1600
40073500: global: R0: 1600	R1: 0	R2: 0	R3: 0

*********** CGRA EXECUTE - PRINT C ****************

Reading mem from PE 0
40073500: system.cpu: memdata in execute = 120
40073500: system.cpu: Ins: 5066735770, 12e00409a @ PE 0
40073500: global: Predictor bit: 1	 Opcode: 2
40073500: global: 
Input1 = 154	Input2 = 1600
40073500: global: 
******** LDMI IN THIS PE 154************
40073500: global: 
************** WE *****************
40073500: global: 
IN READ REGFILE R0 = 1600
40073500: global: R0: 1600	R1: 0	R2: 0	R3: 0
40073500: global: 
WRITE: REG NUMBER: 0 dist: 0
40073500: global: R0: 632384	R1: 0	R2: 0	R3: 0
40073500: global: 
WRITE: FPREG NUMBER: 0 dist: 0
40073500: global: FPR0: 632384	FPR1: 0	FPR2: 0	FPR3: 0
40073500: global: Writing output 632384 to register 0
40073500: global: Distance is: 0
Reading mem from PE 1
40073500: system.cpu: memdata in execute = 120
40073500: system.cpu: Ins: 6306136064, 177e00000 @ PE 1
40073500: global: Predictor bit: 0	 Opcode: 7
40073500: global: CGRA: NOOP.Execute()
40073500: global: Distance is: 0
Reading mem from PE 2
40073500: system.cpu: memdata in execute = 120
40073500: system.cpu: Ins: 6306136064, 177e00000 @ PE 2
40073500: global: Predictor bit: 0	 Opcode: 7
40073500: global: CGRA: NOOP.Execute()
40073500: global: Distance is: 0
Reading mem from PE 3
40073500: system.cpu: memdata in execute = 120
40073500: system.cpu: Ins: 6306136064, 177e00000 @ PE 3
40073500: global: Predictor bit: 0	 Opcode: 7
40073500: global: CGRA: NOOP.Execute()
40073500: global: Distance is: 0
Reading mem from PE 4
40073500: system.cpu: memdata in execute = 120
40073500: system.cpu: Ins: 6306136064, 177e00000 @ PE 4
40073500: global: Predictor bit: 0	 Opcode: 7
40073500: global: CGRA: NOOP.Execute()
40073500: global: Distance is: 0
Reading mem from PE 5
40073500: system.cpu: memdata in execute = 120
40073500: system.cpu: Ins: 6306136064, 177e00000 @ PE 5
40073500: global: Predictor bit: 0	 Opcode: 7
40073500: global: CGRA: NOOP.Execute()
40073500: global: Distance is: 0
Reading mem from PE 6
40073500: system.cpu: memdata in execute = 120
40073500: system.cpu: Ins: 6306136064, 177e00000 @ PE 6
40073500: global: Predictor bit: 0	 Opcode: 7
40073500: global: CGRA: NOOP.Execute()
40073500: global: Distance is: 0
Reading mem from PE 7
40073500: system.cpu: memdata in execute = 120
40073500: system.cpu: Ins: 6306136064, 177e00000 @ PE 7
40073500: global: Predictor bit: 0	 Opcode: 7
40073500: global: CGRA: NOOP.Execute()
40073500: global: Distance is: 0
Reading mem from PE 8
40073500: system.cpu: memdata in execute = 120
40073500: system.cpu: Ins: 6306136064, 177e00000 @ PE 8
40073500: global: Predictor bit: 0	 Opcode: 7
40073500: global: CGRA: NOOP.Execute()
40073500: global: Distance is: 0
Reading mem from PE 9
40073500: system.cpu: memdata in execute = 120
40073500: system.cpu: Ins: 6306136064, 177e00000 @ PE 9
40073500: global: Predictor bit: 0	 Opcode: 7
40073500: global: CGRA: NOOP.Execute()
40073500: global: Distance is: 0
Reading mem from PE 10
40073500: system.cpu: memdata in execute = 120
40073500: system.cpu: Ins: 6306136064, 177e00000 @ PE 10
40073500: global: Predictor bit: 0	 Opcode: 7
40073500: global: CGRA: NOOP.Execute()
40073500: global: Distance is: 0
Reading mem from PE 11
40073500: system.cpu: memdata in execute = 120
40073500: system.cpu: Ins: 6306136064, 177e00000 @ PE 11
40073500: global: Predictor bit: 0	 Opcode: 7
40073500: global: CGRA: NOOP.Execute()
40073500: global: Distance is: 0
Reading mem from PE 12
40073500: system.cpu: memdata in execute = 120
40073500: system.cpu: Ins: 6306136064, 177e00000 @ PE 12
40073500: global: Predictor bit: 0	 Opcode: 7
40073500: global: CGRA: NOOP.Execute()
40073500: global: Distance is: 0
Reading mem from PE 13
40073500: system.cpu: memdata in execute = 120
40073500: system.cpu: Ins: 6306136064, 177e00000 @ PE 13
40073500: global: Predictor bit: 0	 Opcode: 7
40073500: global: CGRA: NOOP.Execute()
40073500: global: Distance is: 0
Reading mem from PE 14
40073500: system.cpu: memdata in execute = 120
40073500: system.cpu: Ins: 6306136064, 177e00000 @ PE 14
40073500: global: Predictor bit: 0	 Opcode: 7
40073500: global: CGRA: NOOP.Execute()
40073500: global: Distance is: 0
Reading mem from PE 15
40073500: system.cpu: memdata in execute = 120
40073500: system.cpu: Ins: 6306136064, 177e00000 @ PE 15
40073500: global: Predictor bit: 0	 Opcode: 7
40073500: global: CGRA: NOOP.Execute()
40073500: global: Distance is: 0
40073500: system.cpu: CGRA advanceTime complete.
40073500: system.cpu: *******IN ADVANCE PC******
40073500: system.cpu: build/ARM/cpu/atomiccgra/atomiccgra.cc,CGRA_advancePC,1727,PC:a48f0
40073500: system.cpu: Passed Complete Drain().
40073500: system.cpu: Make latency status=1.
40073500: system.cpu: Inside status idle.
40073500: system.cpu: Exiting schedule events
40073500: system.cpu: We are here after Execution
40074000: system.cpu: Inside CGRA Execution else statement.
40074000: system.cpu: Inside CGRA_Execution block.
40074000: system.cpu: 
CALL IN NOW CGRA_Execution.
40074000: global: 
******** DB INPUT2 ReadAddress0************
40074000: global: 
IN READ REGFILE R0 = 632384
40074000: global: R0: 632384	R1: 0	R2: 0	R3: 0

*********** CGRA EXECUTE - PRINT C ****************

Reading mem from PE 0
40074000: system.cpu: memdata in execute = 120
40074000: system.cpu: Ins: 5335171072, 13e004000 @ PE 0
40074000: global: Predictor bit: 1	 Opcode: 3
40074000: global: 
Input1 = 0	Input2 = 632384
40074000: global: 
******** LDUI IN THIS PE 0************
40074000: global: 
************** WE *****************
40074000: global: 
IN READ REGFILE R0 = 632384
40074000: global: R0: 632384	R1: 0	R2: 0	R3: 0
40074000: global: 
WRITE: REG NUMBER: 0 dist: 0
40074000: global: R0: 632384	R1: 0	R2: 0	R3: 0
40074000: global: 
WRITE: FPREG NUMBER: 0 dist: 0
40074000: global: FPR0: 632384	FPR1: 0	FPR2: 0	FPR3: 0
40074000: global: Writing output 632384 to register 0
40074000: global: Distance is: 0
Reading mem from PE 1
40074000: system.cpu: memdata in execute = 120
40074000: system.cpu: Ins: 6306136064, 177e00000 @ PE 1
40074000: global: Predictor bit: 0	 Opcode: 7
40074000: global: CGRA: NOOP.Execute()
40074000: global: Distance is: 0
Reading mem from PE 2
40074000: system.cpu: memdata in execute = 120
40074000: system.cpu: Ins: 6306136064, 177e00000 @ PE 2
40074000: global: Predictor bit: 0	 Opcode: 7
40074000: global: CGRA: NOOP.Execute()
40074000: global: Distance is: 0
Reading mem from PE 3
40074000: system.cpu: memdata in execute = 120
40074000: system.cpu: Ins: 6306136064, 177e00000 @ PE 3
40074000: global: Predictor bit: 0	 Opcode: 7
40074000: global: CGRA: NOOP.Execute()
40074000: global: Distance is: 0
Reading mem from PE 4
40074000: system.cpu: memdata in execute = 120
40074000: system.cpu: Ins: 6306136064, 177e00000 @ PE 4
40074000: global: Predictor bit: 0	 Opcode: 7
40074000: global: CGRA: NOOP.Execute()
40074000: global: Distance is: 0
Reading mem from PE 5
40074000: system.cpu: memdata in execute = 120
40074000: system.cpu: Ins: 6306136064, 177e00000 @ PE 5
40074000: global: Predictor bit: 0	 Opcode: 7
40074000: global: CGRA: NOOP.Execute()
40074000: global: Distance is: 0
Reading mem from PE 6
40074000: system.cpu: memdata in execute = 120
40074000: system.cpu: Ins: 6306136064, 177e00000 @ PE 6
40074000: global: Predictor bit: 0	 Opcode: 7
40074000: global: CGRA: NOOP.Execute()
40074000: global: Distance is: 0
Reading mem from PE 7
40074000: system.cpu: memdata in execute = 120
40074000: system.cpu: Ins: 6306136064, 177e00000 @ PE 7
40074000: global: Predictor bit: 0	 Opcode: 7
40074000: global: CGRA: NOOP.Execute()
40074000: global: Distance is: 0
Reading mem from PE 8
40074000: system.cpu: memdata in execute = 120
40074000: system.cpu: Ins: 6306136064, 177e00000 @ PE 8
40074000: global: Predictor bit: 0	 Opcode: 7
40074000: global: CGRA: NOOP.Execute()
40074000: global: Distance is: 0
Reading mem from PE 9
40074000: system.cpu: memdata in execute = 120
40074000: system.cpu: Ins: 6306136064, 177e00000 @ PE 9
40074000: global: Predictor bit: 0	 Opcode: 7
40074000: global: CGRA: NOOP.Execute()
40074000: global: Distance is: 0
Reading mem from PE 10
40074000: system.cpu: memdata in execute = 120
40074000: system.cpu: Ins: 6306136064, 177e00000 @ PE 10
40074000: global: Predictor bit: 0	 Opcode: 7
40074000: global: CGRA: NOOP.Execute()
40074000: global: Distance is: 0
Reading mem from PE 11
40074000: system.cpu: memdata in execute = 120
40074000: system.cpu: Ins: 6306136064, 177e00000 @ PE 11
40074000: global: Predictor bit: 0	 Opcode: 7
40074000: global: CGRA: NOOP.Execute()
40074000: global: Distance is: 0
Reading mem from PE 12
40074000: system.cpu: memdata in execute = 120
40074000: system.cpu: Ins: 6306136064, 177e00000 @ PE 12
40074000: global: Predictor bit: 0	 Opcode: 7
40074000: global: CGRA: NOOP.Execute()
40074000: global: Distance is: 0
Reading mem from PE 13
40074000: system.cpu: memdata in execute = 120
40074000: system.cpu: Ins: 6306136064, 177e00000 @ PE 13
40074000: global: Predictor bit: 0	 Opcode: 7
40074000: global: CGRA: NOOP.Execute()
40074000: global: Distance is: 0
Reading mem from PE 14
40074000: system.cpu: memdata in execute = 120
40074000: system.cpu: Ins: 6306136064, 177e00000 @ PE 14
40074000: global: Predictor bit: 0	 Opcode: 7
40074000: global: CGRA: NOOP.Execute()
40074000: global: Distance is: 0
Reading mem from PE 15
40074000: system.cpu: memdata in execute = 120
40074000: system.cpu: Ins: 6306136064, 177e00000 @ PE 15
40074000: global: Predictor bit: 0	 Opcode: 7
40074000: global: CGRA: NOOP.Execute()
40074000: global: Distance is: 0
40074000: system.cpu: CGRA advanceTime complete.
40074000: system.cpu: *******IN ADVANCE PC******
40074000: system.cpu: build/ARM/cpu/atomiccgra/atomiccgra.cc,CGRA_advancePC,1727,PC:a4970
40074000: system.cpu: Passed Complete Drain().
40074000: system.cpu: Make latency status=1.
40074000: system.cpu: Inside status idle.
40074000: system.cpu: Exiting schedule events
40074000: system.cpu: We are here after Execution
40074500: system.cpu: Inside CGRA Execution else statement.
40074500: system.cpu: Inside CGRA_Execution block.
40074500: system.cpu: 
CALL IN NOW CGRA_Execution.
40074500: global: 
******** DB INPUT1 ReadAddress0************
40074500: global: 
IN READ REGFILE R0 = 632384
40074500: global: R0: 632384	R1: 0	R2: 0	R3: 0

*********** CGRA EXECUTE - PRINT C ****************

Reading mem from PE 0
40074500: system.cpu: memdata in execute = 120
40074500: system.cpu: Ins: 6052388868, 168c02004 @ PE 0
40074500: global: Predictor bit: 1	 Opcode: 6
40074500: global: 
Input1 = 632384	Input2 = 4
40074500: global: 
******** ADDRESS GENERATED IN THIS PE 632384************
40074500: global: 
*********Setting Address 9a640 ******
40074500: global: Distance is: 0
Reading mem from PE 1
40074500: system.cpu: memdata in execute = 120
40074500: system.cpu: Ins: 6306136064, 177e00000 @ PE 1
40074500: global: Predictor bit: 0	 Opcode: 7
40074500: global: CGRA: NOOP.Execute()
40074500: global: Distance is: 0
Reading mem from PE 2
40074500: system.cpu: memdata in execute = 120
40074500: system.cpu: Ins: 6306136064, 177e00000 @ PE 2
40074500: global: Predictor bit: 0	 Opcode: 7
40074500: global: CGRA: NOOP.Execute()
40074500: global: Distance is: 0
Reading mem from PE 3
40074500: system.cpu: memdata in execute = 120
40074500: system.cpu: Ins: 6306136064, 177e00000 @ PE 3
40074500: global: Predictor bit: 0	 Opcode: 7
40074500: global: CGRA: NOOP.Execute()
40074500: global: Distance is: 0
Reading mem from PE 4
40074500: system.cpu: memdata in execute = 120
40074500: system.cpu: Ins: 6306136064, 177e00000 @ PE 4
40074500: global: Predictor bit: 0	 Opcode: 7
40074500: global: CGRA: NOOP.Execute()
40074500: global: Distance is: 0
Reading mem from PE 5
40074500: system.cpu: memdata in execute = 120
40074500: system.cpu: Ins: 6306136064, 177e00000 @ PE 5
40074500: global: Predictor bit: 0	 Opcode: 7
40074500: global: CGRA: NOOP.Execute()
40074500: global: Distance is: 0
Reading mem from PE 6
40074500: system.cpu: memdata in execute = 120
40074500: system.cpu: Ins: 6306136064, 177e00000 @ PE 6
40074500: global: Predictor bit: 0	 Opcode: 7
40074500: global: CGRA: NOOP.Execute()
40074500: global: Distance is: 0
Reading mem from PE 7
40074500: system.cpu: memdata in execute = 120
40074500: system.cpu: Ins: 6306136064, 177e00000 @ PE 7
40074500: global: Predictor bit: 0	 Opcode: 7
40074500: global: CGRA: NOOP.Execute()
40074500: global: Distance is: 0
Reading mem from PE 8
40074500: system.cpu: memdata in execute = 120
40074500: system.cpu: Ins: 6306136064, 177e00000 @ PE 8
40074500: global: Predictor bit: 0	 Opcode: 7
40074500: global: CGRA: NOOP.Execute()
40074500: global: Distance is: 0
Reading mem from PE 9
40074500: system.cpu: memdata in execute = 120
40074500: system.cpu: Ins: 6306136064, 177e00000 @ PE 9
40074500: global: Predictor bit: 0	 Opcode: 7
40074500: global: CGRA: NOOP.Execute()
40074500: global: Distance is: 0
Reading mem from PE 10
40074500: system.cpu: memdata in execute = 120
40074500: system.cpu: Ins: 6306136064, 177e00000 @ PE 10
40074500: global: Predictor bit: 0	 Opcode: 7
40074500: global: CGRA: NOOP.Execute()
40074500: global: Distance is: 0
Reading mem from PE 11
40074500: system.cpu: memdata in execute = 120
40074500: system.cpu: Ins: 6306136064, 177e00000 @ PE 11
40074500: global: Predictor bit: 0	 Opcode: 7
40074500: global: CGRA: NOOP.Execute()
40074500: global: Distance is: 0
Reading mem from PE 12
40074500: system.cpu: memdata in execute = 120
40074500: system.cpu: Ins: 6306136064, 177e00000 @ PE 12
40074500: global: Predictor bit: 0	 Opcode: 7
40074500: global: CGRA: NOOP.Execute()
40074500: global: Distance is: 0
Reading mem from PE 13
40074500: system.cpu: memdata in execute = 120
40074500: system.cpu: Ins: 6306136064, 177e00000 @ PE 13
40074500: global: Predictor bit: 0	 Opcode: 7
40074500: global: CGRA: NOOP.Execute()
40074500: global: Distance is: 0
Reading mem from PE 14
40074500: system.cpu: memdata in execute = 120
40074500: system.cpu: Ins: 6306136064, 177e00000 @ PE 14
40074500: global: Predictor bit: 0	 Opcode: 7
40074500: global: CGRA: NOOP.Execute()
40074500: global: Distance is: 0
Reading mem from PE 15
40074500: system.cpu: memdata in execute = 120
40074500: system.cpu: Ins: 6306136064, 177e00000 @ PE 15
40074500: global: Predictor bit: 0	 Opcode: 7
40074500: global: CGRA: NOOP.Execute()
40074500: global: Distance is: 0

************* MEM READ *************
Row: 0 - address: 632384 - data: 16
40074500: system.cpu: CGRA advanceTime complete.
40074500: system.cpu: *******IN ADVANCE PC******
40074500: system.cpu: build/ARM/cpu/atomiccgra/atomiccgra.cc,CGRA_advancePC,1727,PC:a49f0
40074500: system.cpu: Passed Complete Drain().
40074500: system.cpu: Make latency status=1.
40074500: system.cpu: Inside status idle.
40074500: system.cpu: Exiting schedule events
40074500: system.cpu: We are here after Execution
40075000: system.cpu: Inside CGRA Execution else statement.
40075000: system.cpu: Inside CGRA_Execution block.
40075000: system.cpu: 
CALL IN NOW CGRA_Execution.
40075000: global: 
******** DB INPUT1 16************

*********** CGRA EXECUTE - PRINT C ****************

Reading mem from PE 0
40075000: system.cpu: memdata in execute = 120
40075000: system.cpu: Ins: 4391452672, 105c04000 @ PE 0
40075000: global: Predictor bit: 0	 Opcode: 0
40075000: global: 
Input1 = 16	Input2 = 0
40075000: global: 
******** SUM IN THIS PE 16************
40075000: global: 
************** WE *****************
40075000: global: 
WRITE: REG NUMBER: 0 dist: 0
40075000: global: R0: 16	R1: 0	R2: 0	R3: 0
40075000: global: 
WRITE: FPREG NUMBER: 0 dist: 0
40075000: global: FPR0: 16	FPR1: 0	FPR2: 0	FPR3: 0
40075000: global: Writing output 16 to register 0
40075000: global: Distance is: 0
Reading mem from PE 1
40075000: system.cpu: memdata in execute = 120
40075000: system.cpu: Ins: 6306136064, 177e00000 @ PE 1
40075000: global: Predictor bit: 0	 Opcode: 7
40075000: global: CGRA: NOOP.Execute()
40075000: global: Distance is: 0
Reading mem from PE 2
40075000: system.cpu: memdata in execute = 120
40075000: system.cpu: Ins: 6306136064, 177e00000 @ PE 2
40075000: global: Predictor bit: 0	 Opcode: 7
40075000: global: CGRA: NOOP.Execute()
40075000: global: Distance is: 0
Reading mem from PE 3
40075000: system.cpu: memdata in execute = 120
40075000: system.cpu: Ins: 6306136064, 177e00000 @ PE 3
40075000: global: Predictor bit: 0	 Opcode: 7
40075000: global: CGRA: NOOP.Execute()
40075000: global: Distance is: 0
Reading mem from PE 4
40075000: system.cpu: memdata in execute = 120
40075000: system.cpu: Ins: 6306136064, 177e00000 @ PE 4
40075000: global: Predictor bit: 0	 Opcode: 7
40075000: global: CGRA: NOOP.Execute()
40075000: global: Distance is: 0
Reading mem from PE 5
40075000: system.cpu: memdata in execute = 120
40075000: system.cpu: Ins: 6306136064, 177e00000 @ PE 5
40075000: global: Predictor bit: 0	 Opcode: 7
40075000: global: CGRA: NOOP.Execute()
40075000: global: Distance is: 0
Reading mem from PE 6
40075000: system.cpu: memdata in execute = 120
40075000: system.cpu: Ins: 6306136064, 177e00000 @ PE 6
40075000: global: Predictor bit: 0	 Opcode: 7
40075000: global: CGRA: NOOP.Execute()
40075000: global: Distance is: 0
Reading mem from PE 7
40075000: system.cpu: memdata in execute = 120
40075000: system.cpu: Ins: 6306136064, 177e00000 @ PE 7
40075000: global: Predictor bit: 0	 Opcode: 7
40075000: global: CGRA: NOOP.Execute()
40075000: global: Distance is: 0
Reading mem from PE 8
40075000: system.cpu: memdata in execute = 120
40075000: system.cpu: Ins: 6306136064, 177e00000 @ PE 8
40075000: global: Predictor bit: 0	 Opcode: 7
40075000: global: CGRA: NOOP.Execute()
40075000: global: Distance is: 0
Reading mem from PE 9
40075000: system.cpu: memdata in execute = 120
40075000: system.cpu: Ins: 6306136064, 177e00000 @ PE 9
40075000: global: Predictor bit: 0	 Opcode: 7
40075000: global: CGRA: NOOP.Execute()
40075000: global: Distance is: 0
Reading mem from PE 10
40075000: system.cpu: memdata in execute = 120
40075000: system.cpu: Ins: 6306136064, 177e00000 @ PE 10
40075000: global: Predictor bit: 0	 Opcode: 7
40075000: global: CGRA: NOOP.Execute()
40075000: global: Distance is: 0
Reading mem from PE 11
40075000: system.cpu: memdata in execute = 120
40075000: system.cpu: Ins: 6306136064, 177e00000 @ PE 11
40075000: global: Predictor bit: 0	 Opcode: 7
40075000: global: CGRA: NOOP.Execute()
40075000: global: Distance is: 0
Reading mem from PE 12
40075000: system.cpu: memdata in execute = 120
40075000: system.cpu: Ins: 6306136064, 177e00000 @ PE 12
40075000: global: Predictor bit: 0	 Opcode: 7
40075000: global: CGRA: NOOP.Execute()
40075000: global: Distance is: 0
Reading mem from PE 13
40075000: system.cpu: memdata in execute = 120
40075000: system.cpu: Ins: 6306136064, 177e00000 @ PE 13
40075000: global: Predictor bit: 0	 Opcode: 7
40075000: global: CGRA: NOOP.Execute()
40075000: global: Distance is: 0
Reading mem from PE 14
40075000: system.cpu: memdata in execute = 120
40075000: system.cpu: Ins: 6306136064, 177e00000 @ PE 14
40075000: global: Predictor bit: 0	 Opcode: 7
40075000: global: CGRA: NOOP.Execute()
40075000: global: Distance is: 0
Reading mem from PE 15
40075000: system.cpu: memdata in execute = 120
40075000: system.cpu: Ins: 6306136064, 177e00000 @ PE 15
40075000: global: Predictor bit: 0	 Opcode: 7
40075000: global: CGRA: NOOP.Execute()
40075000: global: Distance is: 0

************* MEM READ *************
Row: 0 - address: 632384 - data: 16
40075000: system.cpu: CGRA advanceTime complete.
40075000: system.cpu: *******IN ADVANCE PC******
40075000: system.cpu: build/ARM/cpu/atomiccgra/atomiccgra.cc,CGRA_advancePC,1727,PC:a4a70
40075000: system.cpu: Passed Complete Drain().
40075000: system.cpu: Make latency status=1.
40075000: system.cpu: Inside status idle.
40075000: system.cpu: Exiting schedule events
40075000: system.cpu: We are here after Execution
40075500: system.cpu: Inside CGRA Execution else statement.
40075500: system.cpu: Inside CGRA_Execution block.
40075500: system.cpu: 
CALL IN NOW CGRA_Execution.
40075500: global: 
******** DB INPUT2 ReadAddress0************
40075500: global: 
IN READ REGFILE R0 = 16
40075500: global: R0: 16	R1: 0	R2: 0	R3: 0

*********** CGRA EXECUTE - PRINT C ****************

Reading mem from PE 0
40075500: system.cpu: memdata in execute = 120
40075500: system.cpu: Ins: 4798300160, 11e004000 @ PE 0
40075500: global: Predictor bit: 1	 Opcode: 1
40075500: global: 
Input1 = 0	Input2 = 16
40075500: global: 
******** LDI IN THIS PE 0************
40075500: global: 
************** WE *****************
40075500: global: 
WRITE: REG NUMBER: 0 dist: 0
40075500: global: R0: 0	R1: 0	R2: 0	R3: 0
40075500: global: 
WRITE: FPREG NUMBER: 0 dist: 0
40075500: global: FPR0: 0	FPR1: 0	FPR2: 0	FPR3: 0
40075500: global: Writing output 0 to register 0
40075500: global: Distance is: 0
Reading mem from PE 1
40075500: system.cpu: memdata in execute = 120
40075500: system.cpu: Ins: 6306136064, 177e00000 @ PE 1
40075500: global: Predictor bit: 0	 Opcode: 7
40075500: global: CGRA: NOOP.Execute()
40075500: global: Distance is: 0
Reading mem from PE 2
40075500: system.cpu: memdata in execute = 120
40075500: system.cpu: Ins: 6306136064, 177e00000 @ PE 2
40075500: global: Predictor bit: 0	 Opcode: 7
40075500: global: CGRA: NOOP.Execute()
40075500: global: Distance is: 0
Reading mem from PE 3
40075500: system.cpu: memdata in execute = 120
40075500: system.cpu: Ins: 6306136064, 177e00000 @ PE 3
40075500: global: Predictor bit: 0	 Opcode: 7
40075500: global: CGRA: NOOP.Execute()
40075500: global: Distance is: 0
Reading mem from PE 4
40075500: system.cpu: memdata in execute = 120
40075500: system.cpu: Ins: 6306136064, 177e00000 @ PE 4
40075500: global: Predictor bit: 0	 Opcode: 7
40075500: global: CGRA: NOOP.Execute()
40075500: global: Distance is: 0
Reading mem from PE 5
40075500: system.cpu: memdata in execute = 120
40075500: system.cpu: Ins: 6306136064, 177e00000 @ PE 5
40075500: global: Predictor bit: 0	 Opcode: 7
40075500: global: CGRA: NOOP.Execute()
40075500: global: Distance is: 0
Reading mem from PE 6
40075500: system.cpu: memdata in execute = 120
40075500: system.cpu: Ins: 6306136064, 177e00000 @ PE 6
40075500: global: Predictor bit: 0	 Opcode: 7
40075500: global: CGRA: NOOP.Execute()
40075500: global: Distance is: 0
Reading mem from PE 7
40075500: system.cpu: memdata in execute = 120
40075500: system.cpu: Ins: 6306136064, 177e00000 @ PE 7
40075500: global: Predictor bit: 0	 Opcode: 7
40075500: global: CGRA: NOOP.Execute()
40075500: global: Distance is: 0
Reading mem from PE 8
40075500: system.cpu: memdata in execute = 120
40075500: system.cpu: Ins: 6306136064, 177e00000 @ PE 8
40075500: global: Predictor bit: 0	 Opcode: 7
40075500: global: CGRA: NOOP.Execute()
40075500: global: Distance is: 0
Reading mem from PE 9
40075500: system.cpu: memdata in execute = 120
40075500: system.cpu: Ins: 6306136064, 177e00000 @ PE 9
40075500: global: Predictor bit: 0	 Opcode: 7
40075500: global: CGRA: NOOP.Execute()
40075500: global: Distance is: 0
Reading mem from PE 10
40075500: system.cpu: memdata in execute = 120
40075500: system.cpu: Ins: 6306136064, 177e00000 @ PE 10
40075500: global: Predictor bit: 0	 Opcode: 7
40075500: global: CGRA: NOOP.Execute()
40075500: global: Distance is: 0
Reading mem from PE 11
40075500: system.cpu: memdata in execute = 120
40075500: system.cpu: Ins: 6306136064, 177e00000 @ PE 11
40075500: global: Predictor bit: 0	 Opcode: 7
40075500: global: CGRA: NOOP.Execute()
40075500: global: Distance is: 0
Reading mem from PE 12
40075500: system.cpu: memdata in execute = 120
40075500: system.cpu: Ins: 6306136064, 177e00000 @ PE 12
40075500: global: Predictor bit: 0	 Opcode: 7
40075500: global: CGRA: NOOP.Execute()
40075500: global: Distance is: 0
Reading mem from PE 13
40075500: system.cpu: memdata in execute = 120
40075500: system.cpu: Ins: 6306136064, 177e00000 @ PE 13
40075500: global: Predictor bit: 0	 Opcode: 7
40075500: global: CGRA: NOOP.Execute()
40075500: global: Distance is: 0
Reading mem from PE 14
40075500: system.cpu: memdata in execute = 120
40075500: system.cpu: Ins: 6306136064, 177e00000 @ PE 14
40075500: global: Predictor bit: 0	 Opcode: 7
40075500: global: CGRA: NOOP.Execute()
40075500: global: Distance is: 0
Reading mem from PE 15
40075500: system.cpu: memdata in execute = 120
40075500: system.cpu: Ins: 6306136064, 177e00000 @ PE 15
40075500: global: Predictor bit: 0	 Opcode: 7
40075500: global: CGRA: NOOP.Execute()
40075500: global: Distance is: 0

************* MEM READ *************
Row: 0 - address: 632384 - data: 16
40075500: system.cpu: CGRA advanceTime complete.
40075500: system.cpu: *******IN ADVANCE PC******
40075500: system.cpu: build/ARM/cpu/atomiccgra/atomiccgra.cc,CGRA_advancePC,1727,PC:a4af0
40075500: system.cpu: Passed Complete Drain().
40075500: system.cpu: Make latency status=1.
40075500: system.cpu: Inside status idle.
40075500: system.cpu: Exiting schedule events
40075500: system.cpu: We are here after Execution
40076000: system.cpu: Inside CGRA Execution else statement.
40076000: system.cpu: Inside CGRA_Execution block.
40076000: system.cpu: 
CALL IN NOW CGRA_Execution.
40076000: global: 
******** DB INPUT2 ReadAddress0************
40076000: global: 
IN READ REGFILE R0 = 0
40076000: global: R0: 0	R1: 0	R2: 0	R3: 0

*********** CGRA EXECUTE - PRINT C ****************

Reading mem from PE 0
40076000: system.cpu: memdata in execute = 120
40076000: system.cpu: Ins: 5066735616, 12e004000 @ PE 0
40076000: global: Predictor bit: 1	 Opcode: 2
40076000: global: 
Input1 = 0	Input2 = 0
40076000: global: 
******** LDMI IN THIS PE 0************
40076000: global: 
************** WE *****************
40076000: global: 
IN READ REGFILE R0 = 0
40076000: global: R0: 0	R1: 0	R2: 0	R3: 0
40076000: global: 
WRITE: REG NUMBER: 0 dist: 0
40076000: global: R0: 0	R1: 0	R2: 0	R3: 0
40076000: global: 
WRITE: FPREG NUMBER: 0 dist: 0
40076000: global: FPR0: 0	FPR1: 0	FPR2: 0	FPR3: 0
40076000: global: Writing output 0 to register 0
40076000: global: Distance is: 0
Reading mem from PE 1
40076000: system.cpu: memdata in execute = 120
40076000: system.cpu: Ins: 6306136064, 177e00000 @ PE 1
40076000: global: Predictor bit: 0	 Opcode: 7
40076000: global: CGRA: NOOP.Execute()
40076000: global: Distance is: 0
Reading mem from PE 2
40076000: system.cpu: memdata in execute = 120
40076000: system.cpu: Ins: 6306136064, 177e00000 @ PE 2
40076000: global: Predictor bit: 0	 Opcode: 7
40076000: global: CGRA: NOOP.Execute()
40076000: global: Distance is: 0
Reading mem from PE 3
40076000: system.cpu: memdata in execute = 120
40076000: system.cpu: Ins: 6306136064, 177e00000 @ PE 3
40076000: global: Predictor bit: 0	 Opcode: 7
40076000: global: CGRA: NOOP.Execute()
40076000: global: Distance is: 0
Reading mem from PE 4
40076000: system.cpu: memdata in execute = 120
40076000: system.cpu: Ins: 6306136064, 177e00000 @ PE 4
40076000: global: Predictor bit: 0	 Opcode: 7
40076000: global: CGRA: NOOP.Execute()
40076000: global: Distance is: 0
Reading mem from PE 5
40076000: system.cpu: memdata in execute = 120
40076000: system.cpu: Ins: 6306136064, 177e00000 @ PE 5
40076000: global: Predictor bit: 0	 Opcode: 7
40076000: global: CGRA: NOOP.Execute()
40076000: global: Distance is: 0
Reading mem from PE 6
40076000: system.cpu: memdata in execute = 120
40076000: system.cpu: Ins: 6306136064, 177e00000 @ PE 6
40076000: global: Predictor bit: 0	 Opcode: 7
40076000: global: CGRA: NOOP.Execute()
40076000: global: Distance is: 0
Reading mem from PE 7
40076000: system.cpu: memdata in execute = 120
40076000: system.cpu: Ins: 6306136064, 177e00000 @ PE 7
40076000: global: Predictor bit: 0	 Opcode: 7
40076000: global: CGRA: NOOP.Execute()
40076000: global: Distance is: 0
Reading mem from PE 8
40076000: system.cpu: memdata in execute = 120
40076000: system.cpu: Ins: 6306136064, 177e00000 @ PE 8
40076000: global: Predictor bit: 0	 Opcode: 7
40076000: global: CGRA: NOOP.Execute()
40076000: global: Distance is: 0
Reading mem from PE 9
40076000: system.cpu: memdata in execute = 120
40076000: system.cpu: Ins: 6306136064, 177e00000 @ PE 9
40076000: global: Predictor bit: 0	 Opcode: 7
40076000: global: CGRA: NOOP.Execute()
40076000: global: Distance is: 0
Reading mem from PE 10
40076000: system.cpu: memdata in execute = 120
40076000: system.cpu: Ins: 6306136064, 177e00000 @ PE 10
40076000: global: Predictor bit: 0	 Opcode: 7
40076000: global: CGRA: NOOP.Execute()
40076000: global: Distance is: 0
Reading mem from PE 11
40076000: system.cpu: memdata in execute = 120
40076000: system.cpu: Ins: 6306136064, 177e00000 @ PE 11
40076000: global: Predictor bit: 0	 Opcode: 7
40076000: global: CGRA: NOOP.Execute()
40076000: global: Distance is: 0
Reading mem from PE 12
40076000: system.cpu: memdata in execute = 120
40076000: system.cpu: Ins: 6306136064, 177e00000 @ PE 12
40076000: global: Predictor bit: 0	 Opcode: 7
40076000: global: CGRA: NOOP.Execute()
40076000: global: Distance is: 0
Reading mem from PE 13
40076000: system.cpu: memdata in execute = 120
40076000: system.cpu: Ins: 6306136064, 177e00000 @ PE 13
40076000: global: Predictor bit: 0	 Opcode: 7
40076000: global: CGRA: NOOP.Execute()
40076000: global: Distance is: 0
Reading mem from PE 14
40076000: system.cpu: memdata in execute = 120
40076000: system.cpu: Ins: 6306136064, 177e00000 @ PE 14
40076000: global: Predictor bit: 0	 Opcode: 7
40076000: global: CGRA: NOOP.Execute()
40076000: global: Distance is: 0
Reading mem from PE 15
40076000: system.cpu: memdata in execute = 120
40076000: system.cpu: Ins: 6306136064, 177e00000 @ PE 15
40076000: global: Predictor bit: 0	 Opcode: 7
40076000: global: CGRA: NOOP.Execute()
40076000: global: Distance is: 0

************* MEM READ *************
Row: 0 - address: 632384 - data: 16
40076000: system.cpu: CGRA advanceTime complete.
40076000: system.cpu: *******IN ADVANCE PC******
40076000: system.cpu: build/ARM/cpu/atomiccgra/atomiccgra.cc,CGRA_advancePC,1727,PC:a4b70
40076000: system.cpu: Passed Complete Drain().
40076000: system.cpu: Make latency status=1.
40076000: system.cpu: Inside status idle.
40076000: system.cpu: Exiting schedule events
40076000: system.cpu: We are here after Execution
40076500: system.cpu: Inside CGRA Execution else statement.
40076500: system.cpu: Inside CGRA_Execution block.
40076500: system.cpu: 
CALL IN NOW CGRA_Execution.
40076500: global: 
******** DB INPUT2 ReadAddress0************
40076500: global: 
IN READ REGFILE R0 = 0
40076500: global: R0: 0	R1: 0	R2: 0	R3: 0

*********** CGRA EXECUTE - PRINT C ****************

Reading mem from PE 0
40076500: system.cpu: memdata in execute = 120
40076500: system.cpu: Ins: 5335171072, 13e004000 @ PE 0
40076500: global: Predictor bit: 1	 Opcode: 3
40076500: global: 
Input1 = 0	Input2 = 0
40076500: global: 
******** LDUI IN THIS PE 0************
40076500: global: 
************** WE *****************
40076500: global: 
IN READ REGFILE R0 = 0
40076500: global: R0: 0	R1: 0	R2: 0	R3: 0
40076500: global: 
WRITE: REG NUMBER: 0 dist: 0
40076500: global: R0: 0	R1: 0	R2: 0	R3: 0
40076500: global: 
WRITE: FPREG NUMBER: 0 dist: 0
40076500: global: FPR0: 0	FPR1: 0	FPR2: 0	FPR3: 0
40076500: global: Writing output 0 to register 0
40076500: global: Distance is: 0
Reading mem from PE 1
40076500: system.cpu: memdata in execute = 120
40076500: system.cpu: Ins: 6306136064, 177e00000 @ PE 1
40076500: global: Predictor bit: 0	 Opcode: 7
40076500: global: CGRA: NOOP.Execute()
40076500: global: Distance is: 0
Reading mem from PE 2
40076500: system.cpu: memdata in execute = 120
40076500: system.cpu: Ins: 6306136064, 177e00000 @ PE 2
40076500: global: Predictor bit: 0	 Opcode: 7
40076500: global: CGRA: NOOP.Execute()
40076500: global: Distance is: 0
Reading mem from PE 3
40076500: system.cpu: memdata in execute = 120
40076500: system.cpu: Ins: 6306136064, 177e00000 @ PE 3
40076500: global: Predictor bit: 0	 Opcode: 7
40076500: global: CGRA: NOOP.Execute()
40076500: global: Distance is: 0
Reading mem from PE 4
40076500: system.cpu: memdata in execute = 120
40076500: system.cpu: Ins: 6306136064, 177e00000 @ PE 4
40076500: global: Predictor bit: 0	 Opcode: 7
40076500: global: CGRA: NOOP.Execute()
40076500: global: Distance is: 0
Reading mem from PE 5
40076500: system.cpu: memdata in execute = 120
40076500: system.cpu: Ins: 6306136064, 177e00000 @ PE 5
40076500: global: Predictor bit: 0	 Opcode: 7
40076500: global: CGRA: NOOP.Execute()
40076500: global: Distance is: 0
Reading mem from PE 6
40076500: system.cpu: memdata in execute = 120
40076500: system.cpu: Ins: 6306136064, 177e00000 @ PE 6
40076500: global: Predictor bit: 0	 Opcode: 7
40076500: global: CGRA: NOOP.Execute()
40076500: global: Distance is: 0
Reading mem from PE 7
40076500: system.cpu: memdata in execute = 120
40076500: system.cpu: Ins: 6306136064, 177e00000 @ PE 7
40076500: global: Predictor bit: 0	 Opcode: 7
40076500: global: CGRA: NOOP.Execute()
40076500: global: Distance is: 0
Reading mem from PE 8
40076500: system.cpu: memdata in execute = 120
40076500: system.cpu: Ins: 6306136064, 177e00000 @ PE 8
40076500: global: Predictor bit: 0	 Opcode: 7
40076500: global: CGRA: NOOP.Execute()
40076500: global: Distance is: 0
Reading mem from PE 9
40076500: system.cpu: memdata in execute = 120
40076500: system.cpu: Ins: 6306136064, 177e00000 @ PE 9
40076500: global: Predictor bit: 0	 Opcode: 7
40076500: global: CGRA: NOOP.Execute()
40076500: global: Distance is: 0
Reading mem from PE 10
40076500: system.cpu: memdata in execute = 120
40076500: system.cpu: Ins: 6306136064, 177e00000 @ PE 10
40076500: global: Predictor bit: 0	 Opcode: 7
40076500: global: CGRA: NOOP.Execute()
40076500: global: Distance is: 0
Reading mem from PE 11
40076500: system.cpu: memdata in execute = 120
40076500: system.cpu: Ins: 6306136064, 177e00000 @ PE 11
40076500: global: Predictor bit: 0	 Opcode: 7
40076500: global: CGRA: NOOP.Execute()
40076500: global: Distance is: 0
Reading mem from PE 12
40076500: system.cpu: memdata in execute = 120
40076500: system.cpu: Ins: 6306136064, 177e00000 @ PE 12
40076500: global: Predictor bit: 0	 Opcode: 7
40076500: global: CGRA: NOOP.Execute()
40076500: global: Distance is: 0
Reading mem from PE 13
40076500: system.cpu: memdata in execute = 120
40076500: system.cpu: Ins: 6306136064, 177e00000 @ PE 13
40076500: global: Predictor bit: 0	 Opcode: 7
40076500: global: CGRA: NOOP.Execute()
40076500: global: Distance is: 0
Reading mem from PE 14
40076500: system.cpu: memdata in execute = 120
40076500: system.cpu: Ins: 6306136064, 177e00000 @ PE 14
40076500: global: Predictor bit: 0	 Opcode: 7
40076500: global: CGRA: NOOP.Execute()
40076500: global: Distance is: 0
Reading mem from PE 15
40076500: system.cpu: memdata in execute = 120
40076500: system.cpu: Ins: 6306136064, 177e00000 @ PE 15
40076500: global: Predictor bit: 0	 Opcode: 7
40076500: global: CGRA: NOOP.Execute()
40076500: global: Distance is: 0

************* MEM READ *************
Row: 0 - address: 632384 - data: 16
40076500: system.cpu: CGRA advanceTime complete.
40076500: system.cpu: *******IN ADVANCE PC******
40076500: system.cpu: build/ARM/cpu/atomiccgra/atomiccgra.cc,CGRA_advancePC,1727,PC:a4bf0
40076500: system.cpu: Passed Complete Drain().
40076500: system.cpu: Make latency status=1.
40076500: system.cpu: Inside status idle.
40076500: system.cpu: Exiting schedule events
40076500: system.cpu: We are here after Execution
40077000: system.cpu: Inside CGRA Execution else statement.
40077000: system.cpu: Inside CGRA_Execution block.
40077000: system.cpu: 
CALL IN NOW CGRA_Execution.
40077000: global: 
******** DB INPUT2 ReadAddress0************
40077000: global: 
IN READ REGFILE R0 = 0
40077000: global: R0: 0	R1: 0	R2: 0	R3: 0

*********** CGRA EXECUTE - PRINT C ****************

Reading mem from PE 0
40077000: system.cpu: memdata in execute = 120
40077000: system.cpu: Ins: 4798333928, 11e00c3e8 @ PE 0
40077000: global: Predictor bit: 1	 Opcode: 1
40077000: global: 
Input1 = 1000	Input2 = 0
40077000: global: 
******** LDI IN THIS PE 1000************
40077000: global: 
************** WE *****************
40077000: global: 
WRITE: REG NUMBER: 1 dist: 0
40077000: global: R0: 0	R1: 1000	R2: 0	R3: 0
40077000: global: 
WRITE: FPREG NUMBER: 1 dist: 0
40077000: global: FPR0: 0	FPR1: 1000	FPR2: 0	FPR3: 0
40077000: global: Writing output 1000 to register 1
40077000: global: Distance is: 0
Reading mem from PE 1
40077000: system.cpu: memdata in execute = 120
40077000: system.cpu: Ins: 6306136064, 177e00000 @ PE 1
40077000: global: Predictor bit: 0	 Opcode: 7
40077000: global: CGRA: NOOP.Execute()
40077000: global: Distance is: 0
Reading mem from PE 2
40077000: system.cpu: memdata in execute = 120
40077000: system.cpu: Ins: 6306136064, 177e00000 @ PE 2
40077000: global: Predictor bit: 0	 Opcode: 7
40077000: global: CGRA: NOOP.Execute()
40077000: global: Distance is: 0
Reading mem from PE 3
40077000: system.cpu: memdata in execute = 120
40077000: system.cpu: Ins: 6306136064, 177e00000 @ PE 3
40077000: global: Predictor bit: 0	 Opcode: 7
40077000: global: CGRA: NOOP.Execute()
40077000: global: Distance is: 0
Reading mem from PE 4
40077000: system.cpu: memdata in execute = 120
40077000: system.cpu: Ins: 6306136064, 177e00000 @ PE 4
40077000: global: Predictor bit: 0	 Opcode: 7
40077000: global: CGRA: NOOP.Execute()
40077000: global: Distance is: 0
Reading mem from PE 5
40077000: system.cpu: memdata in execute = 120
40077000: system.cpu: Ins: 6306136064, 177e00000 @ PE 5
40077000: global: Predictor bit: 0	 Opcode: 7
40077000: global: CGRA: NOOP.Execute()
40077000: global: Distance is: 0
Reading mem from PE 6
40077000: system.cpu: memdata in execute = 120
40077000: system.cpu: Ins: 6306136064, 177e00000 @ PE 6
40077000: global: Predictor bit: 0	 Opcode: 7
40077000: global: CGRA: NOOP.Execute()
40077000: global: Distance is: 0
Reading mem from PE 7
40077000: system.cpu: memdata in execute = 120
40077000: system.cpu: Ins: 6306136064, 177e00000 @ PE 7
40077000: global: Predictor bit: 0	 Opcode: 7
40077000: global: CGRA: NOOP.Execute()
40077000: global: Distance is: 0
Reading mem from PE 8
40077000: system.cpu: memdata in execute = 120
40077000: system.cpu: Ins: 6306136064, 177e00000 @ PE 8
40077000: global: Predictor bit: 0	 Opcode: 7
40077000: global: CGRA: NOOP.Execute()
40077000: global: Distance is: 0
Reading mem from PE 9
40077000: system.cpu: memdata in execute = 120
40077000: system.cpu: Ins: 6306136064, 177e00000 @ PE 9
40077000: global: Predictor bit: 0	 Opcode: 7
40077000: global: CGRA: NOOP.Execute()
40077000: global: Distance is: 0
Reading mem from PE 10
40077000: system.cpu: memdata in execute = 120
40077000: system.cpu: Ins: 6306136064, 177e00000 @ PE 10
40077000: global: Predictor bit: 0	 Opcode: 7
40077000: global: CGRA: NOOP.Execute()
40077000: global: Distance is: 0
Reading mem from PE 11
40077000: system.cpu: memdata in execute = 120
40077000: system.cpu: Ins: 6306136064, 177e00000 @ PE 11
40077000: global: Predictor bit: 0	 Opcode: 7
40077000: global: CGRA: NOOP.Execute()
40077000: global: Distance is: 0
Reading mem from PE 12
40077000: system.cpu: memdata in execute = 120
40077000: system.cpu: Ins: 6306136064, 177e00000 @ PE 12
40077000: global: Predictor bit: 0	 Opcode: 7
40077000: global: CGRA: NOOP.Execute()
40077000: global: Distance is: 0
Reading mem from PE 13
40077000: system.cpu: memdata in execute = 120
40077000: system.cpu: Ins: 6306136064, 177e00000 @ PE 13
40077000: global: Predictor bit: 0	 Opcode: 7
40077000: global: CGRA: NOOP.Execute()
40077000: global: Distance is: 0
Reading mem from PE 14
40077000: system.cpu: memdata in execute = 120
40077000: system.cpu: Ins: 6306136064, 177e00000 @ PE 14
40077000: global: Predictor bit: 0	 Opcode: 7
40077000: global: CGRA: NOOP.Execute()
40077000: global: Distance is: 0
Reading mem from PE 15
40077000: system.cpu: memdata in execute = 120
40077000: system.cpu: Ins: 6306136064, 177e00000 @ PE 15
40077000: global: Predictor bit: 0	 Opcode: 7
40077000: global: CGRA: NOOP.Execute()
40077000: global: Distance is: 0

************* MEM READ *************
Row: 0 - address: 632384 - data: 16
40077000: system.cpu: CGRA advanceTime complete.
40077000: system.cpu: *******IN ADVANCE PC******
40077000: system.cpu: build/ARM/cpu/atomiccgra/atomiccgra.cc,CGRA_advancePC,1727,PC:a4c70
40077000: system.cpu: Passed Complete Drain().
40077000: system.cpu: Make latency status=1.
40077000: system.cpu: Inside status idle.
40077000: system.cpu: Exiting schedule events
40077000: system.cpu: We are here after Execution
40077500: system.cpu: Inside CGRA Execution else statement.
40077500: system.cpu: Inside CGRA_Execution block.
40077500: system.cpu: 
CALL IN NOW CGRA_Execution.
40077500: global: 
******** DB INPUT2 ReadAddress0************
40077500: global: 
IN READ REGFILE R0 = 0
40077500: global: R0: 0	R1: 1000	R2: 0	R3: 0

*********** CGRA EXECUTE - PRINT C ****************

Reading mem from PE 0
40077500: system.cpu: memdata in execute = 120
40077500: system.cpu: Ins: 5066768384, 12e00c000 @ PE 0
40077500: global: Predictor bit: 1	 Opcode: 2
40077500: global: 
Input1 = 0	Input2 = 0
40077500: global: 
******** LDMI IN THIS PE 0************
40077500: global: 
************** WE *****************
40077500: global: 
IN READ REGFILE R0 = 0
40077500: global: R0: 0	R1: 1000	R2: 0	R3: 0
40077500: global: 
WRITE: REG NUMBER: 1 dist: 0
40077500: global: R0: 0	R1: 1000	R2: 0	R3: 0
40077500: global: 
WRITE: FPREG NUMBER: 1 dist: 0
40077500: global: FPR0: 0	FPR1: 1000	FPR2: 0	FPR3: 0
40077500: global: Writing output 1000 to register 1
40077500: global: Distance is: 0
Reading mem from PE 1
40077500: system.cpu: memdata in execute = 120
40077500: system.cpu: Ins: 6306136064, 177e00000 @ PE 1
40077500: global: Predictor bit: 0	 Opcode: 7
40077500: global: CGRA: NOOP.Execute()
40077500: global: Distance is: 0
Reading mem from PE 2
40077500: system.cpu: memdata in execute = 120
40077500: system.cpu: Ins: 6306136064, 177e00000 @ PE 2
40077500: global: Predictor bit: 0	 Opcode: 7
40077500: global: CGRA: NOOP.Execute()
40077500: global: Distance is: 0
Reading mem from PE 3
40077500: system.cpu: memdata in execute = 120
40077500: system.cpu: Ins: 6306136064, 177e00000 @ PE 3
40077500: global: Predictor bit: 0	 Opcode: 7
40077500: global: CGRA: NOOP.Execute()
40077500: global: Distance is: 0
Reading mem from PE 4
40077500: system.cpu: memdata in execute = 120
40077500: system.cpu: Ins: 6306136064, 177e00000 @ PE 4
40077500: global: Predictor bit: 0	 Opcode: 7
40077500: global: CGRA: NOOP.Execute()
40077500: global: Distance is: 0
Reading mem from PE 5
40077500: system.cpu: memdata in execute = 120
40077500: system.cpu: Ins: 6306136064, 177e00000 @ PE 5
40077500: global: Predictor bit: 0	 Opcode: 7
40077500: global: CGRA: NOOP.Execute()
40077500: global: Distance is: 0
Reading mem from PE 6
40077500: system.cpu: memdata in execute = 120
40077500: system.cpu: Ins: 6306136064, 177e00000 @ PE 6
40077500: global: Predictor bit: 0	 Opcode: 7
40077500: global: CGRA: NOOP.Execute()
40077500: global: Distance is: 0
Reading mem from PE 7
40077500: system.cpu: memdata in execute = 120
40077500: system.cpu: Ins: 6306136064, 177e00000 @ PE 7
40077500: global: Predictor bit: 0	 Opcode: 7
40077500: global: CGRA: NOOP.Execute()
40077500: global: Distance is: 0
Reading mem from PE 8
40077500: system.cpu: memdata in execute = 120
40077500: system.cpu: Ins: 6306136064, 177e00000 @ PE 8
40077500: global: Predictor bit: 0	 Opcode: 7
40077500: global: CGRA: NOOP.Execute()
40077500: global: Distance is: 0
Reading mem from PE 9
40077500: system.cpu: memdata in execute = 120
40077500: system.cpu: Ins: 6306136064, 177e00000 @ PE 9
40077500: global: Predictor bit: 0	 Opcode: 7
40077500: global: CGRA: NOOP.Execute()
40077500: global: Distance is: 0
Reading mem from PE 10
40077500: system.cpu: memdata in execute = 120
40077500: system.cpu: Ins: 6306136064, 177e00000 @ PE 10
40077500: global: Predictor bit: 0	 Opcode: 7
40077500: global: CGRA: NOOP.Execute()
40077500: global: Distance is: 0
Reading mem from PE 11
40077500: system.cpu: memdata in execute = 120
40077500: system.cpu: Ins: 6306136064, 177e00000 @ PE 11
40077500: global: Predictor bit: 0	 Opcode: 7
40077500: global: CGRA: NOOP.Execute()
40077500: global: Distance is: 0
Reading mem from PE 12
40077500: system.cpu: memdata in execute = 120
40077500: system.cpu: Ins: 6306136064, 177e00000 @ PE 12
40077500: global: Predictor bit: 0	 Opcode: 7
40077500: global: CGRA: NOOP.Execute()
40077500: global: Distance is: 0
Reading mem from PE 13
40077500: system.cpu: memdata in execute = 120
40077500: system.cpu: Ins: 6306136064, 177e00000 @ PE 13
40077500: global: Predictor bit: 0	 Opcode: 7
40077500: global: CGRA: NOOP.Execute()
40077500: global: Distance is: 0
Reading mem from PE 14
40077500: system.cpu: memdata in execute = 120
40077500: system.cpu: Ins: 6306136064, 177e00000 @ PE 14
40077500: global: Predictor bit: 0	 Opcode: 7
40077500: global: CGRA: NOOP.Execute()
40077500: global: Distance is: 0
Reading mem from PE 15
40077500: system.cpu: memdata in execute = 120
40077500: system.cpu: Ins: 6306136064, 177e00000 @ PE 15
40077500: global: Predictor bit: 0	 Opcode: 7
40077500: global: CGRA: NOOP.Execute()
40077500: global: Distance is: 0

************* MEM READ *************
Row: 0 - address: 632384 - data: 16
40077500: system.cpu: CGRA advanceTime complete.
40077500: system.cpu: *******IN ADVANCE PC******
40077500: system.cpu: build/ARM/cpu/atomiccgra/atomiccgra.cc,CGRA_advancePC,1727,PC:a4cf0
40077500: system.cpu: Passed Complete Drain().
40077500: system.cpu: Make latency status=1.
40077500: system.cpu: Inside status idle.
40077500: system.cpu: Exiting schedule events
40077500: system.cpu: We are here after Execution
40078000: system.cpu: Inside CGRA Execution else statement.
40078000: system.cpu: Inside CGRA_Execution block.
40078000: system.cpu: 
CALL IN NOW CGRA_Execution.
40078000: global: 
******** DB INPUT2 ReadAddress0************
40078000: global: 
IN READ REGFILE R0 = 0
40078000: global: R0: 0	R1: 1000	R2: 0	R3: 0

*********** CGRA EXECUTE - PRINT C ****************

Reading mem from PE 0
40078000: system.cpu: memdata in execute = 120
40078000: system.cpu: Ins: 5335203840, 13e00c000 @ PE 0
40078000: global: Predictor bit: 1	 Opcode: 3
40078000: global: 
Input1 = 0	Input2 = 0
40078000: global: 
******** LDUI IN THIS PE 0************
40078000: global: 
************** WE *****************
40078000: global: 
IN READ REGFILE R0 = 0
40078000: global: R0: 0	R1: 1000	R2: 0	R3: 0
40078000: global: 
WRITE: REG NUMBER: 1 dist: 0
40078000: global: R0: 0	R1: 1000	R2: 0	R3: 0
40078000: global: 
WRITE: FPREG NUMBER: 1 dist: 0
40078000: global: FPR0: 0	FPR1: 1000	FPR2: 0	FPR3: 0
40078000: global: Writing output 1000 to register 1
40078000: global: Distance is: 0
Reading mem from PE 1
40078000: system.cpu: memdata in execute = 120
40078000: system.cpu: Ins: 6306136064, 177e00000 @ PE 1
40078000: global: Predictor bit: 0	 Opcode: 7
40078000: global: CGRA: NOOP.Execute()
40078000: global: Distance is: 0
Reading mem from PE 2
40078000: system.cpu: memdata in execute = 120
40078000: system.cpu: Ins: 6306136064, 177e00000 @ PE 2
40078000: global: Predictor bit: 0	 Opcode: 7
40078000: global: CGRA: NOOP.Execute()
40078000: global: Distance is: 0
Reading mem from PE 3
40078000: system.cpu: memdata in execute = 120
40078000: system.cpu: Ins: 6306136064, 177e00000 @ PE 3
40078000: global: Predictor bit: 0	 Opcode: 7
40078000: global: CGRA: NOOP.Execute()
40078000: global: Distance is: 0
Reading mem from PE 4
40078000: system.cpu: memdata in execute = 120
40078000: system.cpu: Ins: 6306136064, 177e00000 @ PE 4
40078000: global: Predictor bit: 0	 Opcode: 7
40078000: global: CGRA: NOOP.Execute()
40078000: global: Distance is: 0
Reading mem from PE 5
40078000: system.cpu: memdata in execute = 120
40078000: system.cpu: Ins: 6306136064, 177e00000 @ PE 5
40078000: global: Predictor bit: 0	 Opcode: 7
40078000: global: CGRA: NOOP.Execute()
40078000: global: Distance is: 0
Reading mem from PE 6
40078000: system.cpu: memdata in execute = 120
40078000: system.cpu: Ins: 6306136064, 177e00000 @ PE 6
40078000: global: Predictor bit: 0	 Opcode: 7
40078000: global: CGRA: NOOP.Execute()
40078000: global: Distance is: 0
Reading mem from PE 7
40078000: system.cpu: memdata in execute = 120
40078000: system.cpu: Ins: 6306136064, 177e00000 @ PE 7
40078000: global: Predictor bit: 0	 Opcode: 7
40078000: global: CGRA: NOOP.Execute()
40078000: global: Distance is: 0
Reading mem from PE 8
40078000: system.cpu: memdata in execute = 120
40078000: system.cpu: Ins: 6306136064, 177e00000 @ PE 8
40078000: global: Predictor bit: 0	 Opcode: 7
40078000: global: CGRA: NOOP.Execute()
40078000: global: Distance is: 0
Reading mem from PE 9
40078000: system.cpu: memdata in execute = 120
40078000: system.cpu: Ins: 6306136064, 177e00000 @ PE 9
40078000: global: Predictor bit: 0	 Opcode: 7
40078000: global: CGRA: NOOP.Execute()
40078000: global: Distance is: 0
Reading mem from PE 10
40078000: system.cpu: memdata in execute = 120
40078000: system.cpu: Ins: 6306136064, 177e00000 @ PE 10
40078000: global: Predictor bit: 0	 Opcode: 7
40078000: global: CGRA: NOOP.Execute()
40078000: global: Distance is: 0
Reading mem from PE 11
40078000: system.cpu: memdata in execute = 120
40078000: system.cpu: Ins: 6306136064, 177e00000 @ PE 11
40078000: global: Predictor bit: 0	 Opcode: 7
40078000: global: CGRA: NOOP.Execute()
40078000: global: Distance is: 0
Reading mem from PE 12
40078000: system.cpu: memdata in execute = 120
40078000: system.cpu: Ins: 6306136064, 177e00000 @ PE 12
40078000: global: Predictor bit: 0	 Opcode: 7
40078000: global: CGRA: NOOP.Execute()
40078000: global: Distance is: 0
Reading mem from PE 13
40078000: system.cpu: memdata in execute = 120
40078000: system.cpu: Ins: 6306136064, 177e00000 @ PE 13
40078000: global: Predictor bit: 0	 Opcode: 7
40078000: global: CGRA: NOOP.Execute()
40078000: global: Distance is: 0
Reading mem from PE 14
40078000: system.cpu: memdata in execute = 120
40078000: system.cpu: Ins: 6306136064, 177e00000 @ PE 14
40078000: global: Predictor bit: 0	 Opcode: 7
40078000: global: CGRA: NOOP.Execute()
40078000: global: Distance is: 0
Reading mem from PE 15
40078000: system.cpu: memdata in execute = 120
40078000: system.cpu: Ins: 6306136064, 177e00000 @ PE 15
40078000: global: Predictor bit: 0	 Opcode: 7
40078000: global: CGRA: NOOP.Execute()
40078000: global: Distance is: 0

************* MEM READ *************
Row: 0 - address: 632384 - data: 16
40078000: system.cpu: CGRA advanceTime complete.
40078000: system.cpu: *******IN ADVANCE PC******
40078000: system.cpu: build/ARM/cpu/atomiccgra/atomiccgra.cc,CGRA_advancePC,1727,PC:a4d70
40078000: system.cpu: Passed Complete Drain().
40078000: system.cpu: Make latency status=1.
40078000: system.cpu: Inside status idle.
40078000: system.cpu: Exiting schedule events
40078000: system.cpu: We are here after Execution
40078500: system.cpu: Inside CGRA Execution else statement.
40078500: system.cpu: Inside CGRA_Execution block.
40078500: system.cpu: 
CALL IN NOW CGRA_Execution.
40078500: global: 
******** DB INPUT2 ReadAddress0************
40078500: global: 
IN READ REGFILE R0 = 0
40078500: global: R0: 0	R1: 1000	R2: 0	R3: 0

*********** CGRA EXECUTE - PRINT C ****************

Reading mem from PE 0
40078500: system.cpu: memdata in execute = 120
40078500: system.cpu: Ins: 4798365699, 11e014003 @ PE 0
40078500: global: Predictor bit: 1	 Opcode: 1
40078500: global: 
Input1 = 3	Input2 = 0
40078500: global: 
******** LDI IN THIS PE 3************
40078500: global: 
************** WE *****************
40078500: global: 
WRITE: REG NUMBER: 2 dist: 0
40078500: global: R0: 0	R1: 1000	R2: 3	R3: 0
40078500: global: 
WRITE: FPREG NUMBER: 2 dist: 0
40078500: global: FPR0: 0	FPR1: 1000	FPR2: 3	FPR3: 0
40078500: global: Writing output 3 to register 2
40078500: global: Distance is: 0
Reading mem from PE 1
40078500: system.cpu: memdata in execute = 120
40078500: system.cpu: Ins: 6306136064, 177e00000 @ PE 1
40078500: global: Predictor bit: 0	 Opcode: 7
40078500: global: CGRA: NOOP.Execute()
40078500: global: Distance is: 0
Reading mem from PE 2
40078500: system.cpu: memdata in execute = 120
40078500: system.cpu: Ins: 6306136064, 177e00000 @ PE 2
40078500: global: Predictor bit: 0	 Opcode: 7
40078500: global: CGRA: NOOP.Execute()
40078500: global: Distance is: 0
Reading mem from PE 3
40078500: system.cpu: memdata in execute = 120
40078500: system.cpu: Ins: 6306136064, 177e00000 @ PE 3
40078500: global: Predictor bit: 0	 Opcode: 7
40078500: global: CGRA: NOOP.Execute()
40078500: global: Distance is: 0
Reading mem from PE 4
40078500: system.cpu: memdata in execute = 120
40078500: system.cpu: Ins: 6306136064, 177e00000 @ PE 4
40078500: global: Predictor bit: 0	 Opcode: 7
40078500: global: CGRA: NOOP.Execute()
40078500: global: Distance is: 0
Reading mem from PE 5
40078500: system.cpu: memdata in execute = 120
40078500: system.cpu: Ins: 6306136064, 177e00000 @ PE 5
40078500: global: Predictor bit: 0	 Opcode: 7
40078500: global: CGRA: NOOP.Execute()
40078500: global: Distance is: 0
Reading mem from PE 6
40078500: system.cpu: memdata in execute = 120
40078500: system.cpu: Ins: 6306136064, 177e00000 @ PE 6
40078500: global: Predictor bit: 0	 Opcode: 7
40078500: global: CGRA: NOOP.Execute()
40078500: global: Distance is: 0
Reading mem from PE 7
40078500: system.cpu: memdata in execute = 120
40078500: system.cpu: Ins: 6306136064, 177e00000 @ PE 7
40078500: global: Predictor bit: 0	 Opcode: 7
40078500: global: CGRA: NOOP.Execute()
40078500: global: Distance is: 0
Reading mem from PE 8
40078500: system.cpu: memdata in execute = 120
40078500: system.cpu: Ins: 6306136064, 177e00000 @ PE 8
40078500: global: Predictor bit: 0	 Opcode: 7
40078500: global: CGRA: NOOP.Execute()
40078500: global: Distance is: 0
Reading mem from PE 9
40078500: system.cpu: memdata in execute = 120
40078500: system.cpu: Ins: 6306136064, 177e00000 @ PE 9
40078500: global: Predictor bit: 0	 Opcode: 7
40078500: global: CGRA: NOOP.Execute()
40078500: global: Distance is: 0
Reading mem from PE 10
40078500: system.cpu: memdata in execute = 120
40078500: system.cpu: Ins: 6306136064, 177e00000 @ PE 10
40078500: global: Predictor bit: 0	 Opcode: 7
40078500: global: CGRA: NOOP.Execute()
40078500: global: Distance is: 0
Reading mem from PE 11
40078500: system.cpu: memdata in execute = 120
40078500: system.cpu: Ins: 6306136064, 177e00000 @ PE 11
40078500: global: Predictor bit: 0	 Opcode: 7
40078500: global: CGRA: NOOP.Execute()
40078500: global: Distance is: 0
Reading mem from PE 12
40078500: system.cpu: memdata in execute = 120
40078500: system.cpu: Ins: 6306136064, 177e00000 @ PE 12
40078500: global: Predictor bit: 0	 Opcode: 7
40078500: global: CGRA: NOOP.Execute()
40078500: global: Distance is: 0
Reading mem from PE 13
40078500: system.cpu: memdata in execute = 120
40078500: system.cpu: Ins: 6306136064, 177e00000 @ PE 13
40078500: global: Predictor bit: 0	 Opcode: 7
40078500: global: CGRA: NOOP.Execute()
40078500: global: Distance is: 0
Reading mem from PE 14
40078500: system.cpu: memdata in execute = 120
40078500: system.cpu: Ins: 6306136064, 177e00000 @ PE 14
40078500: global: Predictor bit: 0	 Opcode: 7
40078500: global: CGRA: NOOP.Execute()
40078500: global: Distance is: 0
Reading mem from PE 15
40078500: system.cpu: memdata in execute = 120
40078500: system.cpu: Ins: 6306136064, 177e00000 @ PE 15
40078500: global: Predictor bit: 0	 Opcode: 7
40078500: global: CGRA: NOOP.Execute()
40078500: global: Distance is: 0

************* MEM READ *************
Row: 0 - address: 632384 - data: 16
40078500: system.cpu: CGRA advanceTime complete.
40078500: system.cpu: *******IN ADVANCE PC******
40078500: system.cpu: build/ARM/cpu/atomiccgra/atomiccgra.cc,CGRA_advancePC,1727,PC:a4df0
40078500: system.cpu: Passed Complete Drain().
40078500: system.cpu: Make latency status=1.
40078500: system.cpu: Inside status idle.
40078500: system.cpu: Exiting schedule events
40078500: system.cpu: We are here after Execution
40079000: system.cpu: Inside CGRA Execution else statement.
40079000: system.cpu: Inside CGRA_Execution block.
40079000: system.cpu: 
CALL IN NOW CGRA_Execution.
40079000: global: 
******** DB INPUT2 ReadAddress0************
40079000: global: 
IN READ REGFILE R0 = 0
40079000: global: R0: 0	R1: 1000	R2: 3	R3: 0

*********** CGRA EXECUTE - PRINT C ****************

Reading mem from PE 0
40079000: system.cpu: memdata in execute = 120
40079000: system.cpu: Ins: 5066801152, 12e014000 @ PE 0
40079000: global: Predictor bit: 1	 Opcode: 2
40079000: global: 
Input1 = 0	Input2 = 0
40079000: global: 
******** LDMI IN THIS PE 0************
40079000: global: 
************** WE *****************
40079000: global: 
IN READ REGFILE R0 = 0
40079000: global: R0: 0	R1: 1000	R2: 3	R3: 0
40079000: global: 
WRITE: REG NUMBER: 2 dist: 0
40079000: global: R0: 0	R1: 1000	R2: 3	R3: 0
40079000: global: 
WRITE: FPREG NUMBER: 2 dist: 0
40079000: global: FPR0: 0	FPR1: 1000	FPR2: 3	FPR3: 0
40079000: global: Writing output 3 to register 2
40079000: global: Distance is: 0
Reading mem from PE 1
40079000: system.cpu: memdata in execute = 120
40079000: system.cpu: Ins: 6306136064, 177e00000 @ PE 1
40079000: global: Predictor bit: 0	 Opcode: 7
40079000: global: CGRA: NOOP.Execute()
40079000: global: Distance is: 0
Reading mem from PE 2
40079000: system.cpu: memdata in execute = 120
40079000: system.cpu: Ins: 6306136064, 177e00000 @ PE 2
40079000: global: Predictor bit: 0	 Opcode: 7
40079000: global: CGRA: NOOP.Execute()
40079000: global: Distance is: 0
Reading mem from PE 3
40079000: system.cpu: memdata in execute = 120
40079000: system.cpu: Ins: 6306136064, 177e00000 @ PE 3
40079000: global: Predictor bit: 0	 Opcode: 7
40079000: global: CGRA: NOOP.Execute()
40079000: global: Distance is: 0
Reading mem from PE 4
40079000: system.cpu: memdata in execute = 120
40079000: system.cpu: Ins: 6306136064, 177e00000 @ PE 4
40079000: global: Predictor bit: 0	 Opcode: 7
40079000: global: CGRA: NOOP.Execute()
40079000: global: Distance is: 0
Reading mem from PE 5
40079000: system.cpu: memdata in execute = 120
40079000: system.cpu: Ins: 6306136064, 177e00000 @ PE 5
40079000: global: Predictor bit: 0	 Opcode: 7
40079000: global: CGRA: NOOP.Execute()
40079000: global: Distance is: 0
Reading mem from PE 6
40079000: system.cpu: memdata in execute = 120
40079000: system.cpu: Ins: 6306136064, 177e00000 @ PE 6
40079000: global: Predictor bit: 0	 Opcode: 7
40079000: global: CGRA: NOOP.Execute()
40079000: global: Distance is: 0
Reading mem from PE 7
40079000: system.cpu: memdata in execute = 120
40079000: system.cpu: Ins: 6306136064, 177e00000 @ PE 7
40079000: global: Predictor bit: 0	 Opcode: 7
40079000: global: CGRA: NOOP.Execute()
40079000: global: Distance is: 0
Reading mem from PE 8
40079000: system.cpu: memdata in execute = 120
40079000: system.cpu: Ins: 6306136064, 177e00000 @ PE 8
40079000: global: Predictor bit: 0	 Opcode: 7
40079000: global: CGRA: NOOP.Execute()
40079000: global: Distance is: 0
Reading mem from PE 9
40079000: system.cpu: memdata in execute = 120
40079000: system.cpu: Ins: 6306136064, 177e00000 @ PE 9
40079000: global: Predictor bit: 0	 Opcode: 7
40079000: global: CGRA: NOOP.Execute()
40079000: global: Distance is: 0
Reading mem from PE 10
40079000: system.cpu: memdata in execute = 120
40079000: system.cpu: Ins: 6306136064, 177e00000 @ PE 10
40079000: global: Predictor bit: 0	 Opcode: 7
40079000: global: CGRA: NOOP.Execute()
40079000: global: Distance is: 0
Reading mem from PE 11
40079000: system.cpu: memdata in execute = 120
40079000: system.cpu: Ins: 6306136064, 177e00000 @ PE 11
40079000: global: Predictor bit: 0	 Opcode: 7
40079000: global: CGRA: NOOP.Execute()
40079000: global: Distance is: 0
Reading mem from PE 12
40079000: system.cpu: memdata in execute = 120
40079000: system.cpu: Ins: 6306136064, 177e00000 @ PE 12
40079000: global: Predictor bit: 0	 Opcode: 7
40079000: global: CGRA: NOOP.Execute()
40079000: global: Distance is: 0
Reading mem from PE 13
40079000: system.cpu: memdata in execute = 120
40079000: system.cpu: Ins: 6306136064, 177e00000 @ PE 13
40079000: global: Predictor bit: 0	 Opcode: 7
40079000: global: CGRA: NOOP.Execute()
40079000: global: Distance is: 0
Reading mem from PE 14
40079000: system.cpu: memdata in execute = 120
40079000: system.cpu: Ins: 6306136064, 177e00000 @ PE 14
40079000: global: Predictor bit: 0	 Opcode: 7
40079000: global: CGRA: NOOP.Execute()
40079000: global: Distance is: 0
Reading mem from PE 15
40079000: system.cpu: memdata in execute = 120
40079000: system.cpu: Ins: 6306136064, 177e00000 @ PE 15
40079000: global: Predictor bit: 0	 Opcode: 7
40079000: global: CGRA: NOOP.Execute()
40079000: global: Distance is: 0

************* MEM READ *************
Row: 0 - address: 632384 - data: 16
40079000: system.cpu: CGRA advanceTime complete.
40079000: system.cpu: *******IN ADVANCE PC******
40079000: system.cpu: build/ARM/cpu/atomiccgra/atomiccgra.cc,CGRA_advancePC,1727,PC:a4e70
40079000: system.cpu: Passed Complete Drain().
40079000: system.cpu: Make latency status=1.
40079000: system.cpu: Inside status idle.
40079000: system.cpu: Exiting schedule events
40079000: system.cpu: We are here after Execution
40079500: system.cpu: Inside CGRA Execution else statement.
40079500: system.cpu: Inside CGRA_Execution block.
40079500: system.cpu: 
CALL IN NOW CGRA_Execution.
40079500: global: 
******** DB INPUT2 ReadAddress0************
40079500: global: 
IN READ REGFILE R0 = 0
40079500: global: R0: 0	R1: 1000	R2: 3	R3: 0

*********** CGRA EXECUTE - PRINT C ****************

Reading mem from PE 0
40079500: system.cpu: memdata in execute = 120
40079500: system.cpu: Ins: 5335236608, 13e014000 @ PE 0
40079500: global: Predictor bit: 1	 Opcode: 3
40079500: global: 
Input1 = 0	Input2 = 0
40079500: global: 
******** LDUI IN THIS PE 0************
40079500: global: 
************** WE *****************
40079500: global: 
IN READ REGFILE R0 = 0
40079500: global: R0: 0	R1: 1000	R2: 3	R3: 0
40079500: global: 
WRITE: REG NUMBER: 2 dist: 0
40079500: global: R0: 0	R1: 1000	R2: 3	R3: 0
40079500: global: 
WRITE: FPREG NUMBER: 2 dist: 0
40079500: global: FPR0: 0	FPR1: 1000	FPR2: 3	FPR3: 0
40079500: global: Writing output 3 to register 2
40079500: global: Distance is: 0
Reading mem from PE 1
40079500: system.cpu: memdata in execute = 120
40079500: system.cpu: Ins: 6306136064, 177e00000 @ PE 1
40079500: global: Predictor bit: 0	 Opcode: 7
40079500: global: CGRA: NOOP.Execute()
[...]
40117000: global: 
Input1 = 15	Input2 = 0
40117000: global: 
******** LDI IN THIS PE 15************
40117000: global: Distance is: 0
Reading mem from PE 1
40117000: system.cpu: memdata in execute = 120
40117000: system.cpu: Ins: 4743757824, 11ac00000 @ PE 1
40117000: global: Predictor bit: 1	 Opcode: 1
40117000: global: 
Input1 = 1099	Input2 = 0
40117000: global: 
******** LDI IN THIS PE 1099************
40117000: global: Distance is: 0
Reading mem from PE 2
40117000: system.cpu: memdata in execute = 120
40117000: system.cpu: Ins: 6306136064, 177e00000 @ PE 2
40117000: global: Predictor bit: 0	 Opcode: 7
40117000: global: CGRA: NOOP.Execute()
40117000: global: Distance is: 0
Reading mem from PE 3
40117000: system.cpu: memdata in execute = 120
40117000: system.cpu: Ins: 6306136064, 177e00000 @ PE 3
40117000: global: Predictor bit: 0	 Opcode: 7
40117000: global: CGRA: NOOP.Execute()
40117000: global: Distance is: 0
Reading mem from PE 4
40117000: system.cpu: memdata in execute = 120
40117000: system.cpu: Ins: 6306136064, 177e00000 @ PE 4
40117000: global: Predictor bit: 0	 Opcode: 7
40117000: global: CGRA: NOOP.Execute()
40117000: global: Distance is: 0
Reading mem from PE 5
40117000: system.cpu: memdata in execute = 120
40117000: system.cpu: Ins: 6306136064, 177e00000 @ PE 5
40117000: global: Predictor bit: 0	 Opcode: 7
40117000: global: CGRA: NOOP.Execute()
40117000: global: Distance is: 0
Reading mem from PE 6
40117000: system.cpu: memdata in execute = 120
40117000: system.cpu: Ins: 6306136064, 177e00000 @ PE 6
40117000: global: Predictor bit: 0	 Opcode: 7
40117000: global: CGRA: NOOP.Execute()
40117000: global: Distance is: 0
Reading mem from PE 7
40117000: system.cpu: memdata in execute = 120
40117000: system.cpu: Ins: 6306136064, 177e00000 @ PE 7
40117000: global: Predictor bit: 0	 Opcode: 7
40117000: global: CGRA: NOOP.Execute()
40117000: global: Distance is: 0
Reading mem from PE 8
40117000: system.cpu: memdata in execute = 120
40117000: system.cpu: Ins: 6306136064, 177e00000 @ PE 8
40117000: global: Predictor bit: 0	 Opcode: 7
40117000: global: CGRA: NOOP.Execute()
40117000: global: Distance is: 0
Reading mem from PE 9
40117000: system.cpu: memdata in execute = 120
40117000: system.cpu: Ins: 6306136064, 177e00000 @ PE 9
40117000: global: Predictor bit: 0	 Opcode: 7
40117000: global: CGRA: NOOP.Execute()
40117000: global: Distance is: 0
Reading mem from PE 10
40117000: system.cpu: memdata in execute = 120
40117000: system.cpu: Ins: 6306136064, 177e00000 @ PE 10
40117000: global: Predictor bit: 0	 Opcode: 7
40117000: global: CGRA: NOOP.Execute()
40117000: global: Distance is: 0
Reading mem from PE 11
40117000: system.cpu: memdata in execute = 120
40117000: system.cpu: Ins: 6306136064, 177e00000 @ PE 11
40117000: global: Predictor bit: 0	 Opcode: 7
40117000: global: CGRA: NOOP.Execute()
40117000: global: Distance is: 0
Reading mem from PE 12
40117000: system.cpu: memdata in execute = 120
40117000: system.cpu: Ins: 6306136064, 177e00000 @ PE 12
40117000: global: Predictor bit: 0	 Opcode: 7
40117000: global: CGRA: NOOP.Execute()
40117000: global: Distance is: 0
Reading mem from PE 13
40117000: system.cpu: memdata in execute = 120
40117000: system.cpu: Ins: 6306136064, 177e00000 @ PE 13
40117000: global: Predictor bit: 0	 Opcode: 7
40117000: global: CGRA: NOOP.Execute()
40117000: global: Distance is: 0
Reading mem from PE 14
40117000: system.cpu: memdata in execute = 120
40117000: system.cpu: Ins: 6306136064, 177e00000 @ PE 14
40117000: global: Predictor bit: 0	 Opcode: 7
40117000: global: CGRA: NOOP.Execute()
40117000: global: Distance is: 0
Reading mem from PE 15
40117000: system.cpu: memdata in execute = 120
40117000: system.cpu: Ins: 6306136064, 177e00000 @ PE 15
40117000: global: Predictor bit: 0	 Opcode: 7
40117000: global: CGRA: NOOP.Execute()
40117000: global: Distance is: 0

************* MEM READ *************
Row: 0 - address: 632384 - data: 16
40117000: system.cpu: CGRA advanceTime complete.
40117000: system.cpu: *******IN ADVANCE PC******
40117000: system.cpu: build/ARM/cpu/atomiccgra/atomiccgra.cc,CGRA_advancePC,1727,PC:a60f8
40117000: system.cpu: 
KERNEL->EPILOG
40117000: system.cpu: Passed Complete Drain().
40117000: system.cpu: Make latency status=1.
40117000: system.cpu: Inside status idle.
40117000: system.cpu: Exiting schedule events
40117000: system.cpu: We are here after Execution
40117500: system.cpu: Inside CGRA Execution else statement.
40117500: system.cpu: Inside CGRA_Execution block.
40117500: system.cpu: 
CALL IN NOW CGRA_Execution.

*********** CGRA EXECUTE - PRINT C ****************

Reading mem from PE 0
40117500: system.cpu: memdata in execute = 120
40117500: system.cpu: Ins: 4424990721, 107c00001 @ PE 0
40117500: global: Predictor bit: 0	 Opcode: 0
40117500: global: 
Input1 = 15	Input2 = 1
40117500: global: 
******** SUM IN THIS PE 16************
40117500: global: Distance is: 0
Reading mem from PE 1
40117500: system.cpu: memdata in execute = 120
40117500: system.cpu: Ins: 4424990720, 107c00000 @ PE 1
40117500: global: Predictor bit: 0	 Opcode: 0
40117500: global: 
Input1 = 1099	Input2 = 0
40117500: global: 
******** SUM IN THIS PE 1099************
40117500: global: Distance is: 0
Reading mem from PE 2
40117500: system.cpu: memdata in execute = 120
40117500: system.cpu: Ins: 4324327457, 101c00021 @ PE 2
40117500: global: Predictor bit: 0	 Opcode: 0
40117500: global: 
Input1 = 1099	Input2 = 33
40117500: global: 
******** SUM IN THIS PE 1132************
40117500: global: Distance is: 0
Reading mem from PE 3
40117500: system.cpu: memdata in execute = 120
40117500: system.cpu: Ins: 8367636483, 1f2c00003 @ PE 3
40117500: global: Predictor bit: 0	 Opcode: 15
40117500: global: 
Input1 = 15	Input2 = 3
40117500: global: 
******** Less Than IN THIS PE 0************
40117500: global: 
COMPARE INSTRUCTION OUTPUT = 0
40117500: global: Distance is: 0
Reading mem from PE 4
40117500: system.cpu: memdata in execute = 120
40117500: system.cpu: Ins: 6306136064, 177e00000 @ PE 4
40117500: global: Predictor bit: 0	 Opcode: 7
40117500: global: CGRA: NOOP.Execute()
40117500: global: Distance is: 0
Reading mem from PE 5
40117500: system.cpu: memdata in execute = 120
40117500: system.cpu: Ins: 6306136064, 177e00000 @ PE 5
40117500: global: Predictor bit: 0	 Opcode: 7
40117500: global: CGRA: NOOP.Execute()
40117500: global: Distance is: 0
Reading mem from PE 6
40117500: system.cpu: memdata in execute = 120
40117500: system.cpu: Ins: 6306136064, 177e00000 @ PE 6
40117500: global: Predictor bit: 0	 Opcode: 7
40117500: global: CGRA: NOOP.Execute()
40117500: global: Distance is: 0
Reading mem from PE 7
40117500: system.cpu: memdata in execute = 120
40117500: system.cpu: Ins: 6306136064, 177e00000 @ PE 7
40117500: global: Predictor bit: 0	 Opcode: 7
40117500: global: CGRA: NOOP.Execute()
40117500: global: Distance is: 0
Reading mem from PE 8
40117500: system.cpu: memdata in execute = 120
40117500: system.cpu: Ins: 6306136064, 177e00000 @ PE 8
40117500: global: Predictor bit: 0	 Opcode: 7
40117500: global: CGRA: NOOP.Execute()
40117500: global: Distance is: 0
Reading mem from PE 9
40117500: system.cpu: memdata in execute = 120
40117500: system.cpu: Ins: 6306136064, 177e00000 @ PE 9
40117500: global: Predictor bit: 0	 Opcode: 7
40117500: global: CGRA: NOOP.Execute()
40117500: global: Distance is: 0
Reading mem from PE 10
40117500: system.cpu: memdata in execute = 120
40117500: system.cpu: Ins: 6306136064, 177e00000 @ PE 10
40117500: global: Predictor bit: 0	 Opcode: 7
40117500: global: CGRA: NOOP.Execute()
40117500: global: Distance is: 0
Reading mem from PE 11
40117500: system.cpu: memdata in execute = 120
40117500: system.cpu: Ins: 6306136064, 177e00000 @ PE 11
40117500: global: Predictor bit: 0	 Opcode: 7
40117500: global: CGRA: NOOP.Execute()
40117500: global: Distance is: 0
Reading mem from PE 12
40117500: system.cpu: memdata in execute = 120
40117500: system.cpu: Ins: 6306136064, 177e00000 @ PE 12
40117500: global: Predictor bit: 0	 Opcode: 7
40117500: global: CGRA: NOOP.Execute()
40117500: global: Distance is: 0
Reading mem from PE 13
40117500: system.cpu: memdata in execute = 120
40117500: system.cpu: Ins: 6306136064, 177e00000 @ PE 13
40117500: global: Predictor bit: 0	 Opcode: 7
40117500: global: CGRA: NOOP.Execute()
40117500: global: Distance is: 0
Reading mem from PE 14
40117500: system.cpu: memdata in execute = 120
40117500: system.cpu: Ins: 6306136064, 177e00000 @ PE 14
40117500: global: Predictor bit: 0	 Opcode: 7
40117500: global: CGRA: NOOP.Execute()
40117500: global: Distance is: 0
Reading mem from PE 15
40117500: system.cpu: memdata in execute = 120
40117500: system.cpu: Ins: 6306136064, 177e00000 @ PE 15
40117500: global: Predictor bit: 0	 Opcode: 7
40117500: global: CGRA: NOOP.Execute()
40117500: global: Distance is: 0

************* MEM READ *************
Row: 0 - address: 632384 - data: 16
40117500: system.cpu: CGRA advanceTime complete.
40117500: system.cpu: *******IN ADVANCE PC******
40117500: system.cpu: build/ARM/cpu/atomiccgra/atomiccgra.cc,CGRA_advancePC,1727,PC:a4668
40117500: system.cpu: Passed Complete Drain().
40117500: system.cpu: Make latency status=1.
40117500: system.cpu: Inside status idle.
40117500: system.cpu: Exiting schedule events
40117500: system.cpu: We are here after Execution
40118000: system.cpu: Inside CGRA Execution else statement.
40118000: system.cpu: Inside CGRA_Execution block.
40118000: system.cpu: 
CALL IN NOW CGRA_Execution.
40118000: global: 
******** DB INPUT2 ReadAddress1************
40118000: global: 
IN READ REGFILE R0 = 1
40118000: global: R0: 1	R1: 16	R2: 632388	R3: 632388

*********** CGRA EXECUTE - PRINT C ****************

Reading mem from PE 0
40118000: system.cpu: memdata in execute = 120
40118000: system.cpu: Ins: 7633764352, 1c7020000 @ PE 0
40118000: global: Predictor bit: 0	 Opcode: 12
40118000: global: 
Input1 = 16	Input2 = 16
40118000: global: 
******** EQUALS IN THIS PE 1************
40118000: global: 
COMPARE INSTRUCTION OUTPUT = 1
40118000: global: Distance is: 0
Reading mem from PE 1
40118000: system.cpu: memdata in execute = 120
40118000: system.cpu: Ins: 4324327424, 101c00000 @ PE 1
40118000: global: Predictor bit: 0	 Opcode: 0
40118000: global: 
Input1 = 16	Input2 = 0
40118000: global: 
******** SUM IN THIS PE 16************
40118000: global: Distance is: 0
Reading mem from PE 2
40118000: system.cpu: memdata in execute = 120
40118000: system.cpu: Ins: 5622472704, 14f202000 @ PE 2
40118000: global: Predictor bit: 1	 Opcode: 4
40118000: global: 
Input1 = 1132	Input2 = 1099	InputP = 0
40118000: global: 
******** Selection IN THIS PE 1099************
40118000: global: Distance is: 0
Reading mem from PE 3
40118000: system.cpu: memdata in execute = 120
40118000: system.cpu: Ins: 6306136064, 177e00000 @ PE 3
40118000: global: Predictor bit: 0	 Opcode: 7
40118000: global: CGRA: NOOP.Execute()
40118000: global: Distance is: 0
Reading mem from PE 4
40118000: system.cpu: memdata in execute = 120
40118000: system.cpu: Ins: 6306136064, 177e00000 @ PE 4
40118000: global: Predictor bit: 0	 Opcode: 7
40118000: global: CGRA: NOOP.Execute()
40118000: global: Distance is: 0
Reading mem from PE 5
40118000: system.cpu: memdata in execute = 120
40118000: system.cpu: Ins: 6306136064, 177e00000 @ PE 5
40118000: global: Predictor bit: 0	 Opcode: 7
40118000: global: CGRA: NOOP.Execute()
40118000: global: Distance is: 0
Reading mem from PE 6
40118000: system.cpu: memdata in execute = 120
40118000: system.cpu: Ins: 6306136064, 177e00000 @ PE 6
40118000: global: Predictor bit: 0	 Opcode: 7
40118000: global: CGRA: NOOP.Execute()
40118000: global: Distance is: 0
Reading mem from PE 7
40118000: system.cpu: memdata in execute = 120
40118000: system.cpu: Ins: 6306136064, 177e00000 @ PE 7
40118000: global: Predictor bit: 0	 Opcode: 7
40118000: global: CGRA: NOOP.Execute()
40118000: global: Distance is: 0
Reading mem from PE 8
40118000: system.cpu: memdata in execute = 120
40118000: system.cpu: Ins: 6306136064, 177e00000 @ PE 8
40118000: global: Predictor bit: 0	 Opcode: 7
40118000: global: CGRA: NOOP.Execute()
40118000: global: Distance is: 0
Reading mem from PE 9
40118000: system.cpu: memdata in execute = 120
40118000: system.cpu: Ins: 6306136064, 177e00000 @ PE 9
40118000: global: Predictor bit: 0	 Opcode: 7
40118000: global: CGRA: NOOP.Execute()
40118000: global: Distance is: 0
Reading mem from PE 10
40118000: system.cpu: memdata in execute = 120
40118000: system.cpu: Ins: 6306136064, 177e00000 @ PE 10
40118000: global: Predictor bit: 0	 Opcode: 7
40118000: global: CGRA: NOOP.Execute()
40118000: global: Distance is: 0
Reading mem from PE 11
40118000: system.cpu: memdata in execute = 120
40118000: system.cpu: Ins: 6306136064, 177e00000 @ PE 11
40118000: global: Predictor bit: 0	 Opcode: 7
40118000: global: CGRA: NOOP.Execute()
40118000: global: Distance is: 0
Reading mem from PE 12
40118000: system.cpu: memdata in execute = 120
40118000: system.cpu: Ins: 6306136064, 177e00000 @ PE 12
40118000: global: Predictor bit: 0	 Opcode: 7
40118000: global: CGRA: NOOP.Execute()
40118000: global: Distance is: 0
Reading mem from PE 13
40118000: system.cpu: memdata in execute = 120
40118000: system.cpu: Ins: 6306136064, 177e00000 @ PE 13
40118000: global: Predictor bit: 0	 Opcode: 7
40118000: global: CGRA: NOOP.Execute()
40118000: global: Distance is: 0
Reading mem from PE 14
40118000: system.cpu: memdata in execute = 120
40118000: system.cpu: Ins: 6306136064, 177e00000 @ PE 14
40118000: global: Predictor bit: 0	 Opcode: 7
40118000: global: CGRA: NOOP.Execute()
40118000: global: Distance is: 0
Reading mem from PE 15
40118000: system.cpu: memdata in execute = 120
40118000: system.cpu: Ins: 6306136064, 177e00000 @ PE 15
40118000: global: Predictor bit: 0	 Opcode: 7
40118000: global: CGRA: NOOP.Execute()
40118000: global: Distance is: 0

************* MEM READ *************
Row: 0 - address: 632384 - data: 16
40118000: system.cpu: CGRA advanceTime complete.
40118000: system.cpu: *******IN ADVANCE PC******
40118000: system.cpu: build/ARM/cpu/atomiccgra/atomiccgra.cc,CGRA_advancePC,1727,PC:a46e8
40118000: system.cpu: Passed Complete Drain().
40118000: system.cpu: Make latency status=1.
40118000: system.cpu: Inside status idle.
40118000: system.cpu: Exiting schedule events
40118000: system.cpu: We are here after Execution
40118500: system.cpu: Inside CGRA Execution else statement.
40118500: system.cpu: Inside CGRA_Execution block.
40118500: system.cpu: 
CALL IN NOW CGRA_Execution.
40118500: global: 
******** DB INPUT1 ReadAddress3************
40118500: global: 
IN READ REGFILE R0 = 1
40118500: global: R0: 1	R1: 16	R2: 632388	R3: 632388

*********** CGRA EXECUTE - PRINT C ****************

Reading mem from PE 0
40118500: system.cpu: memdata in execute = 120
40118500: system.cpu: Ins: 6053961732, 168d82004 @ PE 0
40118500: global: Predictor bit: 1	 Opcode: 6
40118500: global: 
Input1 = 632388	Input2 = 4
40118500: global: 
******** ADDRESS GENERATED IN THIS PE 632388************
40118500: global: 
*********Setting Address 9a644 ******
40118500: global: Distance is: 0
Reading mem from PE 1
40118500: system.cpu: memdata in execute = 120
40118500: system.cpu: Ins: 6306136064, 177e00000 @ PE 1
40118500: global: Predictor bit: 0	 Opcode: 7
40118500: global: CGRA: NOOP.Execute()
40118500: global: Distance is: 0
Reading mem from PE 2
40118500: system.cpu: memdata in execute = 120
40118500: system.cpu: Ins: 4424994816, 107c01000 @ PE 2
40118500: global: Predictor bit: 0	 Opcode: 0
40118500: global: 
Input1 = 1099	Input2 = 0
40118500: global: 
******** SUM IN THIS PE 1099************
40118500: global: 
******** DB Output 1099************
40118500: global: Distance is: 0
Reading mem from PE 3
40118500: system.cpu: memdata in execute = 120
40118500: system.cpu: Ins: 6306136064, 177e00000 @ PE 3
40118500: global: Predictor bit: 0	 Opcode: 7
40118500: global: CGRA: NOOP.Execute()
40118500: global: Distance is: 0
Reading mem from PE 4
40118500: system.cpu: memdata in execute = 120
40118500: system.cpu: Ins: 6306136064, 177e00000 @ PE 4
40118500: global: Predictor bit: 0	 Opcode: 7
40118500: global: CGRA: NOOP.Execute()
40118500: global: Distance is: 0
Reading mem from PE 5
40118500: system.cpu: memdata in execute = 120
40118500: system.cpu: Ins: 6306136064, 177e00000 @ PE 5
40118500: global: Predictor bit: 0	 Opcode: 7
40118500: global: CGRA: NOOP.Execute()
40118500: global: Distance is: 0
Reading mem from PE 6
40118500: system.cpu: memdata in execute = 120
40118500: system.cpu: Ins: 6306136064, 177e00000 @ PE 6
40118500: global: Predictor bit: 0	 Opcode: 7
40118500: global: CGRA: NOOP.Execute()
40118500: global: Distance is: 0
Reading mem from PE 7
40118500: system.cpu: memdata in execute = 120
40118500: system.cpu: Ins: 6306136064, 177e00000 @ PE 7
40118500: global: Predictor bit: 0	 Opcode: 7
40118500: global: CGRA: NOOP.Execute()
40118500: global: Distance is: 0
Reading mem from PE 8
40118500: system.cpu: memdata in execute = 120
40118500: system.cpu: Ins: 6306136064, 177e00000 @ PE 8
40118500: global: Predictor bit: 0	 Opcode: 7
40118500: global: CGRA: NOOP.Execute()
40118500: global: Distance is: 0
Reading mem from PE 9
40118500: system.cpu: memdata in execute = 120
40118500: system.cpu: Ins: 6306136064, 177e00000 @ PE 9
40118500: global: Predictor bit: 0	 Opcode: 7
40118500: global: CGRA: NOOP.Execute()
40118500: global: Distance is: 0
Reading mem from PE 10
40118500: system.cpu: memdata in execute = 120
40118500: system.cpu: Ins: 6306136064, 177e00000 @ PE 10
40118500: global: Predictor bit: 0	 Opcode: 7
40118500: global: CGRA: NOOP.Execute()
40118500: global: Distance is: 0
Reading mem from PE 11
40118500: system.cpu: memdata in execute = 120
40118500: system.cpu: Ins: 6306136064, 177e00000 @ PE 11
40118500: global: Predictor bit: 0	 Opcode: 7
40118500: global: CGRA: NOOP.Execute()
40118500: global: Distance is: 0
Reading mem from PE 12
40118500: system.cpu: memdata in execute = 120
40118500: system.cpu: Ins: 6306136064, 177e00000 @ PE 12
40118500: global: Predictor bit: 0	 Opcode: 7
40118500: global: CGRA: NOOP.Execute()
40118500: global: Distance is: 0
Reading mem from PE 13
40118500: system.cpu: memdata in execute = 120
40118500: system.cpu: Ins: 6306136064, 177e00000 @ PE 13
40118500: global: Predictor bit: 0	 Opcode: 7
40118500: global: CGRA: NOOP.Execute()
40118500: global: Distance is: 0
Reading mem from PE 14
40118500: system.cpu: memdata in execute = 120
40118500: system.cpu: Ins: 6306136064, 177e00000 @ PE 14
40118500: global: Predictor bit: 0	 Opcode: 7
40118500: global: CGRA: NOOP.Execute()
40118500: global: Distance is: 0
Reading mem from PE 15
40118500: system.cpu: memdata in execute = 120
40118500: system.cpu: Ins: 6306136064, 177e00000 @ PE 15
40118500: global: Predictor bit: 0	 Opcode: 7
40118500: global: CGRA: NOOP.Execute()
40118500: global: Distance is: 0
40118500: system.cpu: In Memwrite with membus: 1
40118500: system.cpu: In writing INT 1099	 to address:9a644	 -- &Data: 0x558f7291a620	 and uint: K
40118500: system.cpu: Memdata = 64, Memaddr = 632388
40118500: system.cpu: CGRA advanceTime complete.
40118500: system.cpu: *******IN ADVANCE PC******
40118500: system.cpu: build/ARM/cpu/atomiccgra/atomiccgra.cc,CGRA_advancePC,1727,PC:a4768
40118500: system.cpu: Passed Complete Drain().
40118500: system.cpu: Make latency status=1.
40118500: system.cpu: Inside status idle.
40118500: system.cpu: Exiting schedule events
40118500: system.cpu: We are here after Execution
40119000: system.cpu: Inside CGRA Execution else statement.
40119000: system.cpu: ************************PREPARING TO MOVE TO CPU************
40119000: system.cpu: newPC=673640, II=3, EPILog=3, Prolog=48, Len=0
40119000: system.cpu: **********************CGRA Execution is over**********************
40119000: system.cpu: ******REG R11= 16*********
40119000: system.cpu: AFTER COMPLETETION PC: 10e08
iterations:16	, c:0, result:984
Exiting @ tick 41619000 because exiting with last active thread context
