Global frequency set at 1000000000000 ticks per second
warn: DRAM device capacity (8192 Mbytes) does not match the address range assigned (512 Mbytes)
      0: system.cpu: initializing CGRA Dcache ports
      0: system.cpu: Setting Up CGRA
      0: system.cpu: CGRA instantiated
0: system.remote_gdb: listening for remote gdb on port 7000
gem5 Simulator System.  http://gem5.org
gem5 is copyrighted software; use the --copyright option for details.

gem5 version 20.1.0.4
gem5 compiled Jun 14 2021 17:11:04
gem5 started Jun 14 2021 17:11:47
gem5 executing on en4181851l, pid 770644
command line: /home/local/ASUAD/quoclon1/CCF_INS/ins3/gem5/build/ARM/gem5.debug --debug-flags=CGRA,CGRA_Execute,CGRA_Detailed /home/local/ASUAD/quoclon1/CCF_INS/ins3/gem5/configs/example/se_Vinh.py -n 1 --cpu-type CGRA4x4R4torus -c ./add_small -o 10

**** REAL SIMULATION ****
warn: membus.slave is deprecated. `slave` is now called `cpu_side_ports`
warn: membus.slave is deprecated. `slave` is now called `cpu_side_ports`
warn: membus.slave is deprecated. `slave` is now called `cpu_side_ports`
warn: membus.slave is deprecated. `slave` is now called `cpu_side_ports`
warn: membus.slave is deprecated. `slave` is now called `cpu_side_ports`
warn: membus.master is deprecated. `master` is now called `mem_side_ports`
warn: No dot file generated. Please install pydot to generate the dot file and pdf.
info: Entering event queue @ 0.  Starting simulation...
info: Increasing stack size by one page.
warn: ignoring syscall mprotect(...)
createCGRA
checkTotalLoops
from cgra.c Initialize Parameters

**********EPISIZE 48*********

**********PROSIZE 720*********

**********KERNSIZE 48*********

******SIZE OF UNSIGNED LONG4*****

******SIZE OF UNSIGNED LONG LONG8*****

*******************before while loop**************

************XDIM and YDim are 4, 4
Loop Count: -2
From FILE: PROLOGPC= a47f0, EPILOGPC=a4668,  KernelPC=a5e78
Main thread calling CGRA thread...


accelerateOnCGRA
configureCGRA

loopno = 1
Core will execute loop 1 on CGRA


runOnCGRA
39973500: system.cpu: ************************Setting UP the CGRA************
39973500: system.cpu: Inside Setup_CGRA_Execution
39973500: system.cpu: CGRA: OLD PC: 10e08
39973500: system.cpu: Loop count is 8
39973500: system.cpu: Epilog Length is 3
39973500: system.cpu: LiveVar_St_Epilog Length is 1
39973500: system.cpu: II is 3
39973500: system.cpu: Epilog count is  0
39973500: system.cpu: Prolog count is  1
39973500: system.cpu: Kernel Counter is  8
39973500: system.cpu: Prolog PC is a47f0
,39973500: system.cpu: Kernel PC is a5e78
39973500: system.cpu: Epilog PC is a4668
39973500: system.cpu: CGRA PARAMETERS: PROLOG= 45, EPILOG=3, II=3, KernelCounter=8
39973500: system.cpu: CGRA PARAMETERS: PROLOG= 45, EPILOG=3, II=3, KernelCounter=8
39973500: system.cpu: CGRA PARAMETERS: PROLOGPC= a47f0, EPILOGPC=a4668,  KernelPC=a5e78
39973500: system.cpu: CGRA PARAMETERS: PROLOGPC= a47f0, EPILOGPC=a4668,  KernelPC=a5e78
39973500: system.cpu: CGRA PC : a47f0
39973500: system.cpu: **********************CGRA Execution is started**************************** 
39973500: system.cpu: 
Executing 1 CGRA Cycle.
39973500: system.cpu: 
Exiting 1 CGRA Cycle.
39974000: system.cpu: Inside CGRA Execution else statement.
39974000: system.cpu: Inside CGRA_Execution block.
39974000: system.cpu: 
CALL IN NOW CGRA_Execution.
39974000: global: 
******** DB INPUT2 ReadAddress0************
39974000: global: 
IN READ REGFILE R0 = 0
39974000: global: R0: 0	R1: 0	R2: 0	R3: 0
39974000: global: 
******** DB INPUT2 ReadAddress0************
39974000: global: 
IN READ REGFILE R0 = 0
39974000: global: R0: 0	R1: 0	R2: 0	R3: 0
39974000: global: 
******** DB INPUT2 ReadAddress0************
39974000: global: 
IN READ REGFILE R0 = 0
39974000: global: R0: 0	R1: 0	R2: 0	R3: 0
39974000: global: 
******** DB INPUT2 ReadAddress0************
39974000: global: 
IN READ REGFILE R0 = 0
39974000: global: R0: 0	R1: 0	R2: 0	R3: 0
39974000: global: 
******** DB INPUT2 ReadAddress0************
39974000: global: 
IN READ REGFILE R0 = 0
39974000: global: R0: 0	R1: 0	R2: 0	R3: 0
39974000: global: 
******** DB INPUT2 ReadAddress0************
39974000: global: 
IN READ REGFILE R0 = 0
39974000: global: R0: 0	R1: 0	R2: 0	R3: 0
39974000: global: 
******** DB INPUT2 ReadAddress0************
39974000: global: 
IN READ REGFILE R0 = 0
39974000: global: R0: 0	R1: 0	R2: 0	R3: 0
39974000: global: 
******** DB INPUT2 ReadAddress0************
39974000: global: 
IN READ REGFILE R0 = 0
39974000: global: R0: 0	R1: 0	R2: 0	R3: 0
39974000: global: 
******** DB INPUT2 ReadAddress0************
39974000: global: 
IN READ REGFILE R0 = 0
39974000: global: R0: 0	R1: 0	R2: 0	R3: 0
39974000: global: 
******** DB INPUT2 ReadAddress0************
39974000: global: 
IN READ REGFILE R0 = 0
39974000: global: R0: 0	R1: 0	R2: 0	R3: 0
39974000: global: 
******** DB INPUT2 ReadAddress0************
39974000: global: 
IN READ REGFILE R0 = 0
39974000: global: R0: 0	R1: 0	R2: 0	R3: 0
39974000: global: 
******** DB INPUT2 ReadAddress0************
39974000: global: 
IN READ REGFILE R0 = 0
39974000: global: R0: 0	R1: 0	R2: 0	R3: 0
39974000: global: 
******** DB INPUT2 ReadAddress0************
39974000: global: 
IN READ REGFILE R0 = 0
39974000: global: R0: 0	R1: 0	R2: 0	R3: 0
39974000: global: 
******** DB INPUT2 ReadAddress0************
39974000: global: 
IN READ REGFILE R0 = 0
39974000: global: R0: 0	R1: 0	R2: 0	R3: 0
39974000: global: 
******** DB INPUT2 ReadAddress0************
39974000: global: 
IN READ REGFILE R0 = 0
39974000: global: R0: 0	R1: 0	R2: 0	R3: 0
39974000: global: 
******** DB INPUT2 ReadAddress0************
39974000: global: 
IN READ REGFILE R0 = 0
39974000: global: R0: 0	R1: 0	R2: 0	R3: 0

*********** CGRA EXECUTE - PRINT C ****************

39974000: system.cpu: Ins: 4529864704, 10e004000 @ PE 0
39974000: global: Predictor bit: 1	 Opcode: 0
39974000: global: 
Input1 = 0	Input2 = 0
39974000: global: 
******** Setting Configuration as 0************
39974000: global: 
************** WE *****************
39974000: global: Distance is: 0
39974000: system.cpu: Ins: 4529864704, 10e004000 @ PE 1
39974000: global: Predictor bit: 1	 Opcode: 0
39974000: global: 
Input1 = 0	Input2 = 0
39974000: global: 
******** Setting Configuration as 0************
39974000: global: 
************** WE *****************
39974000: global: Distance is: 0
39974000: system.cpu: Ins: 4529864704, 10e004000 @ PE 2
39974000: global: Predictor bit: 1	 Opcode: 0
39974000: global: 
Input1 = 0	Input2 = 0
39974000: global: 
******** Setting Configuration as 0************
39974000: global: 
************** WE *****************
39974000: global: Distance is: 0
39974000: system.cpu: Ins: 4529864704, 10e004000 @ PE 3
39974000: global: Predictor bit: 1	 Opcode: 0
39974000: global: 
Input1 = 0	Input2 = 0
39974000: global: 
******** Setting Configuration as 0************
39974000: global: 
************** WE *****************
39974000: global: Distance is: 0
39974000: system.cpu: Ins: 4529864704, 10e004000 @ PE 4
39974000: global: Predictor bit: 1	 Opcode: 0
39974000: global: 
Input1 = 0	Input2 = 0
39974000: global: 
******** Setting Configuration as 0************
39974000: global: 
************** WE *****************
39974000: global: Distance is: 0
39974000: system.cpu: Ins: 4529864704, 10e004000 @ PE 5
39974000: global: Predictor bit: 1	 Opcode: 0
39974000: global: 
Input1 = 0	Input2 = 0
39974000: global: 
******** Setting Configuration as 0************
39974000: global: 
************** WE *****************
39974000: global: Distance is: 0
39974000: system.cpu: Ins: 4529864704, 10e004000 @ PE 6
39974000: global: Predictor bit: 1	 Opcode: 0
39974000: global: 
Input1 = 0	Input2 = 0
39974000: global: 
******** Setting Configuration as 0************
39974000: global: 
************** WE *****************
39974000: global: Distance is: 0
39974000: system.cpu: Ins: 4529864704, 10e004000 @ PE 7
39974000: global: Predictor bit: 1	 Opcode: 0
39974000: global: 
Input1 = 0	Input2 = 0
39974000: global: 
******** Setting Configuration as 0************
39974000: global: 
************** WE *****************
39974000: global: Distance is: 0
39974000: system.cpu: Ins: 4529864704, 10e004000 @ PE 8
39974000: global: Predictor bit: 1	 Opcode: 0
39974000: global: 
Input1 = 0	Input2 = 0
39974000: global: 
******** Setting Configuration as 0************
39974000: global: 
************** WE *****************
39974000: global: Distance is: 0
39974000: system.cpu: Ins: 4529864704, 10e004000 @ PE 9
39974000: global: Predictor bit: 1	 Opcode: 0
39974000: global: 
Input1 = 0	Input2 = 0
39974000: global: 
******** Setting Configuration as 0************
39974000: global: 
************** WE *****************
39974000: global: Distance is: 0
39974000: system.cpu: Ins: 4529864704, 10e004000 @ PE 10
39974000: global: Predictor bit: 1	 Opcode: 0
39974000: global: 
Input1 = 0	Input2 = 0
39974000: global: 
******** Setting Configuration as 0************
39974000: global: 
************** WE *****************
39974000: global: Distance is: 0
39974000: system.cpu: Ins: 4529864704, 10e004000 @ PE 11
39974000: global: Predictor bit: 1	 Opcode: 0
39974000: global: 
Input1 = 0	Input2 = 0
39974000: global: 
******** Setting Configuration as 0************
39974000: global: 
************** WE *****************
39974000: global: Distance is: 0
39974000: system.cpu: Ins: 4529864704, 10e004000 @ PE 12
39974000: global: Predictor bit: 1	 Opcode: 0
39974000: global: 
Input1 = 0	Input2 = 0
39974000: global: 
******** Setting Configuration as 0************
39974000: global: 
************** WE *****************
39974000: global: Distance is: 0
39974000: system.cpu: Ins: 4529864704, 10e004000 @ PE 13
39974000: global: Predictor bit: 1	 Opcode: 0
39974000: global: 
Input1 = 0	Input2 = 0
39974000: global: 
******** Setting Configuration as 0************
39974000: global: 
************** WE *****************
39974000: global: Distance is: 0
39974000: system.cpu: Ins: 4529864704, 10e004000 @ PE 14
39974000: global: Predictor bit: 1	 Opcode: 0
39974000: global: 
Input1 = 0	Input2 = 0
39974000: global: 
******** Setting Configuration as 0************
39974000: global: 
************** WE *****************
39974000: global: Distance is: 0
39974000: system.cpu: Ins: 4529864704, 10e004000 @ PE 15
39974000: global: Predictor bit: 1	 Opcode: 0
39974000: global: 
Input1 = 0	Input2 = 0
39974000: global: 
******** Setting Configuration as 0************
39974000: global: 
************** WE *****************
39974000: global: Distance is: 0
39974000: system.cpu: CGRA advanceTime complete.
39974000: system.cpu: *******IN ADVANCE PC******
39974000: system.cpu: build/ARM/cpu/atomiccgra/atomiccgra.cc,CGRA_advancePC,1759,PC:a47f0
39974000: system.cpu: Passed Complete Drain().
39974000: system.cpu: Make latency status=1.
39974000: system.cpu: Inside status idle.
39974000: system.cpu: Exiting schedule events
39974000: system.cpu: We are here after Execution
39974500: system.cpu: Inside CGRA Execution else statement.
39974500: system.cpu: Inside CGRA_Execution block.
39974500: system.cpu: 
CALL IN NOW CGRA_Execution.
39974500: global: 
******** DB INPUT2 ReadAddress0************
39974500: global: 
IN READ REGFILE R0 = 0
39974500: global: R0: 0	R1: 0	R2: 0	R3: 0

*********** CGRA EXECUTE - PRINT C ****************

39974500: system.cpu: Ins: 4798301760, 11e004640 @ PE 0
39974500: global: Predictor bit: 1	 Opcode: 1
39974500: global: 
Input1 = 1600	Input2 = 0
39974500: global: 
******** LDI IN THIS PE 1600************
39974500: global: 
************** WE *****************
39974500: global: 
WRITE: REG NUMBER: 0 dist: 0
39974500: global: R0: 1600	R1: 0	R2: 0	R3: 0
39974500: global: 
WRITE: FPREG NUMBER: 0 dist: 0
39974500: global: FPR0: 1600	FPR1: 0	FPR2: 0	FPR3: 0
39974500: global: Writing output 1600 to register 0
39974500: global: Distance is: 0
39974500: system.cpu: Ins: 6306136064, 177e00000 @ PE 1
39974500: global: Predictor bit: 0	 Opcode: 7
39974500: global: CGRA: NOOP.Execute()
39974500: global: Distance is: 0
39974500: system.cpu: Ins: 6306136064, 177e00000 @ PE 2
39974500: global: Predictor bit: 0	 Opcode: 7
39974500: global: CGRA: NOOP.Execute()
39974500: global: Distance is: 0
39974500: system.cpu: Ins: 6306136064, 177e00000 @ PE 3
39974500: global: Predictor bit: 0	 Opcode: 7
39974500: global: CGRA: NOOP.Execute()
39974500: global: Distance is: 0
39974500: system.cpu: Ins: 6306136064, 177e00000 @ PE 4
39974500: global: Predictor bit: 0	 Opcode: 7
39974500: global: CGRA: NOOP.Execute()
39974500: global: Distance is: 0
39974500: system.cpu: Ins: 6306136064, 177e00000 @ PE 5
39974500: global: Predictor bit: 0	 Opcode: 7
39974500: global: CGRA: NOOP.Execute()
39974500: global: Distance is: 0
39974500: system.cpu: Ins: 6306136064, 177e00000 @ PE 6
39974500: global: Predictor bit: 0	 Opcode: 7
39974500: global: CGRA: NOOP.Execute()
39974500: global: Distance is: 0
39974500: system.cpu: Ins: 6306136064, 177e00000 @ PE 7
39974500: global: Predictor bit: 0	 Opcode: 7
39974500: global: CGRA: NOOP.Execute()
39974500: global: Distance is: 0
39974500: system.cpu: Ins: 6306136064, 177e00000 @ PE 8
39974500: global: Predictor bit: 0	 Opcode: 7
39974500: global: CGRA: NOOP.Execute()
39974500: global: Distance is: 0
39974500: system.cpu: Ins: 6306136064, 177e00000 @ PE 9
39974500: global: Predictor bit: 0	 Opcode: 7
39974500: global: CGRA: NOOP.Execute()
39974500: global: Distance is: 0
39974500: system.cpu: Ins: 6306136064, 177e00000 @ PE 10
39974500: global: Predictor bit: 0	 Opcode: 7
39974500: global: CGRA: NOOP.Execute()
39974500: global: Distance is: 0
39974500: system.cpu: Ins: 6306136064, 177e00000 @ PE 11
39974500: global: Predictor bit: 0	 Opcode: 7
39974500: global: CGRA: NOOP.Execute()
39974500: global: Distance is: 0
39974500: system.cpu: Ins: 6306136064, 177e00000 @ PE 12
39974500: global: Predictor bit: 0	 Opcode: 7
39974500: global: CGRA: NOOP.Execute()
39974500: global: Distance is: 0
39974500: system.cpu: Ins: 6306136064, 177e00000 @ PE 13
39974500: global: Predictor bit: 0	 Opcode: 7
39974500: global: CGRA: NOOP.Execute()
39974500: global: Distance is: 0
39974500: system.cpu: Ins: 6306136064, 177e00000 @ PE 14
39974500: global: Predictor bit: 0	 Opcode: 7
39974500: global: CGRA: NOOP.Execute()
39974500: global: Distance is: 0
39974500: system.cpu: Ins: 6306136064, 177e00000 @ PE 15
39974500: global: Predictor bit: 0	 Opcode: 7
39974500: global: CGRA: NOOP.Execute()
39974500: global: Distance is: 0
39974500: system.cpu: CGRA advanceTime complete.
39974500: system.cpu: *******IN ADVANCE PC******
39974500: system.cpu: build/ARM/cpu/atomiccgra/atomiccgra.cc,CGRA_advancePC,1759,PC:a4870
39974500: system.cpu: Passed Complete Drain().
39974500: system.cpu: Make latency status=1.
39974500: system.cpu: Inside status idle.
39974500: system.cpu: Exiting schedule events
39974500: system.cpu: We are here after Execution
39975000: system.cpu: Inside CGRA Execution else statement.
39975000: system.cpu: Inside CGRA_Execution block.
39975000: system.cpu: 
CALL IN NOW CGRA_Execution.
39975000: global: 
******** DB INPUT2 ReadAddress0************
39975000: global: 
IN READ REGFILE R0 = 1600
39975000: global: R0: 1600	R1: 0	R2: 0	R3: 0

*********** CGRA EXECUTE - PRINT C ****************

39975000: system.cpu: Ins: 5066735770, 12e00409a @ PE 0
39975000: global: Predictor bit: 1	 Opcode: 2
39975000: global: 
Input1 = 154	Input2 = 1600
39975000: global: 
******** LDMI IN THIS PE 154************
39975000: global: 
************** WE *****************
39975000: global: 
IN READ REGFILE R0 = 1600
39975000: global: R0: 1600	R1: 0	R2: 0	R3: 0
39975000: global: 
WRITE: REG NUMBER: 0 dist: 0
39975000: global: R0: 632384	R1: 0	R2: 0	R3: 0
39975000: global: 
WRITE: FPREG NUMBER: 0 dist: 0
39975000: global: FPR0: 632384	FPR1: 0	FPR2: 0	FPR3: 0
39975000: global: Writing output 632384 to register 0
39975000: global: Distance is: 0
39975000: system.cpu: Ins: 6306136064, 177e00000 @ PE 1
39975000: global: Predictor bit: 0	 Opcode: 7
39975000: global: CGRA: NOOP.Execute()
39975000: global: Distance is: 0
39975000: system.cpu: Ins: 6306136064, 177e00000 @ PE 2
39975000: global: Predictor bit: 0	 Opcode: 7
39975000: global: CGRA: NOOP.Execute()
39975000: global: Distance is: 0
39975000: system.cpu: Ins: 6306136064, 177e00000 @ PE 3
39975000: global: Predictor bit: 0	 Opcode: 7
39975000: global: CGRA: NOOP.Execute()
39975000: global: Distance is: 0
39975000: system.cpu: Ins: 6306136064, 177e00000 @ PE 4
39975000: global: Predictor bit: 0	 Opcode: 7
39975000: global: CGRA: NOOP.Execute()
39975000: global: Distance is: 0
39975000: system.cpu: Ins: 6306136064, 177e00000 @ PE 5
39975000: global: Predictor bit: 0	 Opcode: 7
39975000: global: CGRA: NOOP.Execute()
39975000: global: Distance is: 0
39975000: system.cpu: Ins: 6306136064, 177e00000 @ PE 6
39975000: global: Predictor bit: 0	 Opcode: 7
39975000: global: CGRA: NOOP.Execute()
39975000: global: Distance is: 0
39975000: system.cpu: Ins: 6306136064, 177e00000 @ PE 7
39975000: global: Predictor bit: 0	 Opcode: 7
39975000: global: CGRA: NOOP.Execute()
39975000: global: Distance is: 0
39975000: system.cpu: Ins: 6306136064, 177e00000 @ PE 8
39975000: global: Predictor bit: 0	 Opcode: 7
39975000: global: CGRA: NOOP.Execute()
39975000: global: Distance is: 0
39975000: system.cpu: Ins: 6306136064, 177e00000 @ PE 9
39975000: global: Predictor bit: 0	 Opcode: 7
39975000: global: CGRA: NOOP.Execute()
39975000: global: Distance is: 0
39975000: system.cpu: Ins: 6306136064, 177e00000 @ PE 10
39975000: global: Predictor bit: 0	 Opcode: 7
39975000: global: CGRA: NOOP.Execute()
39975000: global: Distance is: 0
39975000: system.cpu: Ins: 6306136064, 177e00000 @ PE 11
39975000: global: Predictor bit: 0	 Opcode: 7
39975000: global: CGRA: NOOP.Execute()
39975000: global: Distance is: 0
39975000: system.cpu: Ins: 6306136064, 177e00000 @ PE 12
39975000: global: Predictor bit: 0	 Opcode: 7
39975000: global: CGRA: NOOP.Execute()
39975000: global: Distance is: 0
39975000: system.cpu: Ins: 6306136064, 177e00000 @ PE 13
39975000: global: Predictor bit: 0	 Opcode: 7
39975000: global: CGRA: NOOP.Execute()
39975000: global: Distance is: 0
39975000: system.cpu: Ins: 6306136064, 177e00000 @ PE 14
39975000: global: Predictor bit: 0	 Opcode: 7
39975000: global: CGRA: NOOP.Execute()
39975000: global: Distance is: 0
39975000: system.cpu: Ins: 6306136064, 177e00000 @ PE 15
39975000: global: Predictor bit: 0	 Opcode: 7
39975000: global: CGRA: NOOP.Execute()
39975000: global: Distance is: 0
39975000: system.cpu: CGRA advanceTime complete.
39975000: system.cpu: *******IN ADVANCE PC******
39975000: system.cpu: build/ARM/cpu/atomiccgra/atomiccgra.cc,CGRA_advancePC,1759,PC:a48f0
39975000: system.cpu: Passed Complete Drain().
39975000: system.cpu: Make latency status=1.
39975000: system.cpu: Inside status idle.
39975000: system.cpu: Exiting schedule events
39975000: system.cpu: We are here after Execution
39975500: system.cpu: Inside CGRA Execution else statement.
39975500: system.cpu: Inside CGRA_Execution block.
39975500: system.cpu: 
CALL IN NOW CGRA_Execution.
39975500: global: 
******** DB INPUT2 ReadAddress0************
39975500: global: 
IN READ REGFILE R0 = 632384
39975500: global: R0: 632384	R1: 0	R2: 0	R3: 0

*********** CGRA EXECUTE - PRINT C ****************

39975500: system.cpu: Ins: 5335171072, 13e004000 @ PE 0
39975500: global: Predictor bit: 1	 Opcode: 3
39975500: global: 
Input1 = 0	Input2 = 632384
39975500: global: 
******** LDUI IN THIS PE 0************
39975500: global: 
************** WE *****************
39975500: global: 
IN READ REGFILE R0 = 632384
39975500: global: R0: 632384	R1: 0	R2: 0	R3: 0
39975500: global: 
WRITE: REG NUMBER: 0 dist: 0
39975500: global: R0: 632384	R1: 0	R2: 0	R3: 0
39975500: global: 
WRITE: FPREG NUMBER: 0 dist: 0
39975500: global: FPR0: 632384	FPR1: 0	FPR2: 0	FPR3: 0
39975500: global: Writing output 632384 to register 0
39975500: global: Distance is: 0
39975500: system.cpu: Ins: 6306136064, 177e00000 @ PE 1
39975500: global: Predictor bit: 0	 Opcode: 7
39975500: global: CGRA: NOOP.Execute()
39975500: global: Distance is: 0
39975500: system.cpu: Ins: 6306136064, 177e00000 @ PE 2
39975500: global: Predictor bit: 0	 Opcode: 7
39975500: global: CGRA: NOOP.Execute()
39975500: global: Distance is: 0
39975500: system.cpu: Ins: 6306136064, 177e00000 @ PE 3
39975500: global: Predictor bit: 0	 Opcode: 7
39975500: global: CGRA: NOOP.Execute()
39975500: global: Distance is: 0
39975500: system.cpu: Ins: 6306136064, 177e00000 @ PE 4
39975500: global: Predictor bit: 0	 Opcode: 7
39975500: global: CGRA: NOOP.Execute()
39975500: global: Distance is: 0
39975500: system.cpu: Ins: 6306136064, 177e00000 @ PE 5
39975500: global: Predictor bit: 0	 Opcode: 7
39975500: global: CGRA: NOOP.Execute()
39975500: global: Distance is: 0
39975500: system.cpu: Ins: 6306136064, 177e00000 @ PE 6
39975500: global: Predictor bit: 0	 Opcode: 7
39975500: global: CGRA: NOOP.Execute()
39975500: global: Distance is: 0
39975500: system.cpu: Ins: 6306136064, 177e00000 @ PE 7
39975500: global: Predictor bit: 0	 Opcode: 7
39975500: global: CGRA: NOOP.Execute()
39975500: global: Distance is: 0
39975500: system.cpu: Ins: 6306136064, 177e00000 @ PE 8
39975500: global: Predictor bit: 0	 Opcode: 7
39975500: global: CGRA: NOOP.Execute()
39975500: global: Distance is: 0
39975500: system.cpu: Ins: 6306136064, 177e00000 @ PE 9
39975500: global: Predictor bit: 0	 Opcode: 7
39975500: global: CGRA: NOOP.Execute()
39975500: global: Distance is: 0
39975500: system.cpu: Ins: 6306136064, 177e00000 @ PE 10
39975500: global: Predictor bit: 0	 Opcode: 7
39975500: global: CGRA: NOOP.Execute()
39975500: global: Distance is: 0
39975500: system.cpu: Ins: 6306136064, 177e00000 @ PE 11
39975500: global: Predictor bit: 0	 Opcode: 7
39975500: global: CGRA: NOOP.Execute()
39975500: global: Distance is: 0
39975500: system.cpu: Ins: 6306136064, 177e00000 @ PE 12
39975500: global: Predictor bit: 0	 Opcode: 7
39975500: global: CGRA: NOOP.Execute()
39975500: global: Distance is: 0
39975500: system.cpu: Ins: 6306136064, 177e00000 @ PE 13
39975500: global: Predictor bit: 0	 Opcode: 7
39975500: global: CGRA: NOOP.Execute()
39975500: global: Distance is: 0
39975500: system.cpu: Ins: 6306136064, 177e00000 @ PE 14
39975500: global: Predictor bit: 0	 Opcode: 7
39975500: global: CGRA: NOOP.Execute()
39975500: global: Distance is: 0
39975500: system.cpu: Ins: 6306136064, 177e00000 @ PE 15
39975500: global: Predictor bit: 0	 Opcode: 7
39975500: global: CGRA: NOOP.Execute()
39975500: global: Distance is: 0
39975500: system.cpu: CGRA advanceTime complete.
39975500: system.cpu: *******IN ADVANCE PC******
39975500: system.cpu: build/ARM/cpu/atomiccgra/atomiccgra.cc,CGRA_advancePC,1759,PC:a4970
39975500: system.cpu: Passed Complete Drain().
39975500: system.cpu: Make latency status=1.
39975500: system.cpu: Inside status idle.
39975500: system.cpu: Exiting schedule events
39975500: system.cpu: We are here after Execution
39976000: system.cpu: Inside CGRA Execution else statement.
39976000: system.cpu: Inside CGRA_Execution block.
39976000: system.cpu: 
CALL IN NOW CGRA_Execution.
39976000: global: 
******** DB INPUT1 ReadAddress0************
39976000: global: 
IN READ REGFILE R0 = 632384
39976000: global: R0: 632384	R1: 0	R2: 0	R3: 0

*********** CGRA EXECUTE - PRINT C ****************

39976000: system.cpu: Ins: 6052388868, 168c02004 @ PE 0
39976000: global: Predictor bit: 1	 Opcode: 6
39976000: global: 
Input1 = 632384	Input2 = 4
39976000: global: 
******** ADDRESS GENERATED IN THIS PE 632384************
39976000: global: 
*********Setting Address 9a640 ******
39976000: global: Distance is: 0
39976000: system.cpu: Ins: 6306136064, 177e00000 @ PE 1
39976000: global: Predictor bit: 0	 Opcode: 7
39976000: global: CGRA: NOOP.Execute()
39976000: global: Distance is: 0
39976000: system.cpu: Ins: 6306136064, 177e00000 @ PE 2
39976000: global: Predictor bit: 0	 Opcode: 7
39976000: global: CGRA: NOOP.Execute()
39976000: global: Distance is: 0
39976000: system.cpu: Ins: 6306136064, 177e00000 @ PE 3
39976000: global: Predictor bit: 0	 Opcode: 7
39976000: global: CGRA: NOOP.Execute()
39976000: global: Distance is: 0
39976000: system.cpu: Ins: 6306136064, 177e00000 @ PE 4
39976000: global: Predictor bit: 0	 Opcode: 7
39976000: global: CGRA: NOOP.Execute()
39976000: global: Distance is: 0
39976000: system.cpu: Ins: 6306136064, 177e00000 @ PE 5
39976000: global: Predictor bit: 0	 Opcode: 7
39976000: global: CGRA: NOOP.Execute()
39976000: global: Distance is: 0
39976000: system.cpu: Ins: 6306136064, 177e00000 @ PE 6
39976000: global: Predictor bit: 0	 Opcode: 7
39976000: global: CGRA: NOOP.Execute()
39976000: global: Distance is: 0
39976000: system.cpu: Ins: 6306136064, 177e00000 @ PE 7
39976000: global: Predictor bit: 0	 Opcode: 7
39976000: global: CGRA: NOOP.Execute()
39976000: global: Distance is: 0
39976000: system.cpu: Ins: 6306136064, 177e00000 @ PE 8
39976000: global: Predictor bit: 0	 Opcode: 7
39976000: global: CGRA: NOOP.Execute()
39976000: global: Distance is: 0
39976000: system.cpu: Ins: 6306136064, 177e00000 @ PE 9
39976000: global: Predictor bit: 0	 Opcode: 7
39976000: global: CGRA: NOOP.Execute()
39976000: global: Distance is: 0
39976000: system.cpu: Ins: 6306136064, 177e00000 @ PE 10
39976000: global: Predictor bit: 0	 Opcode: 7
39976000: global: CGRA: NOOP.Execute()
39976000: global: Distance is: 0
39976000: system.cpu: Ins: 6306136064, 177e00000 @ PE 11
39976000: global: Predictor bit: 0	 Opcode: 7
39976000: global: CGRA: NOOP.Execute()
39976000: global: Distance is: 0
39976000: system.cpu: Ins: 6306136064, 177e00000 @ PE 12
39976000: global: Predictor bit: 0	 Opcode: 7
39976000: global: CGRA: NOOP.Execute()
39976000: global: Distance is: 0
39976000: system.cpu: Ins: 6306136064, 177e00000 @ PE 13
39976000: global: Predictor bit: 0	 Opcode: 7
39976000: global: CGRA: NOOP.Execute()
39976000: global: Distance is: 0
39976000: system.cpu: Ins: 6306136064, 177e00000 @ PE 14
39976000: global: Predictor bit: 0	 Opcode: 7
39976000: global: CGRA: NOOP.Execute()
39976000: global: Distance is: 0
39976000: system.cpu: Ins: 6306136064, 177e00000 @ PE 15
39976000: global: Predictor bit: 0	 Opcode: 7
39976000: global: CGRA: NOOP.Execute()
39976000: global: Distance is: 0

************* MEM READ *************
Row: 0 - address: 632384 - data: 10
39976000: system.cpu: CGRA advanceTime complete.
39976000: system.cpu: *******IN ADVANCE PC******
39976000: system.cpu: build/ARM/cpu/atomiccgra/atomiccgra.cc,CGRA_advancePC,1759,PC:a49f0
39976000: system.cpu: Passed Complete Drain().
39976000: system.cpu: Make latency status=1.
39976000: system.cpu: Inside status idle.
39976000: system.cpu: Exiting schedule events
39976000: system.cpu: We are here after Execution
39976500: system.cpu: Inside CGRA Execution else statement.
39976500: system.cpu: Inside CGRA_Execution block.
39976500: system.cpu: 
CALL IN NOW CGRA_Execution.
39976500: global: 
******** DB INPUT1 10************

*********** CGRA EXECUTE - PRINT C ****************

39976500: system.cpu: Ins: 4391452672, 105c04000 @ PE 0
39976500: global: Predictor bit: 0	 Opcode: 0
39976500: global: 
Input1 = 10	Input2 = 0
39976500: global: 
******** SUM IN THIS PE 10************
39976500: global: 
************** WE *****************
39976500: global: 
WRITE: REG NUMBER: 0 dist: 0
39976500: global: R0: 10	R1: 0	R2: 0	R3: 0
39976500: global: 
WRITE: FPREG NUMBER: 0 dist: 0
39976500: global: FPR0: 10	FPR1: 0	FPR2: 0	FPR3: 0
39976500: global: Writing output 10 to register 0
39976500: global: Distance is: 0
39976500: system.cpu: Ins: 6306136064, 177e00000 @ PE 1
39976500: global: Predictor bit: 0	 Opcode: 7
39976500: global: CGRA: NOOP.Execute()
39976500: global: Distance is: 0
39976500: system.cpu: Ins: 6306136064, 177e00000 @ PE 2
39976500: global: Predictor bit: 0	 Opcode: 7
39976500: global: CGRA: NOOP.Execute()
39976500: global: Distance is: 0
39976500: system.cpu: Ins: 6306136064, 177e00000 @ PE 3
39976500: global: Predictor bit: 0	 Opcode: 7
39976500: global: CGRA: NOOP.Execute()
39976500: global: Distance is: 0
39976500: system.cpu: Ins: 6306136064, 177e00000 @ PE 4
39976500: global: Predictor bit: 0	 Opcode: 7
39976500: global: CGRA: NOOP.Execute()
39976500: global: Distance is: 0
39976500: system.cpu: Ins: 6306136064, 177e00000 @ PE 5
39976500: global: Predictor bit: 0	 Opcode: 7
39976500: global: CGRA: NOOP.Execute()
39976500: global: Distance is: 0
39976500: system.cpu: Ins: 6306136064, 177e00000 @ PE 6
39976500: global: Predictor bit: 0	 Opcode: 7
39976500: global: CGRA: NOOP.Execute()
39976500: global: Distance is: 0
39976500: system.cpu: Ins: 6306136064, 177e00000 @ PE 7
39976500: global: Predictor bit: 0	 Opcode: 7
39976500: global: CGRA: NOOP.Execute()
39976500: global: Distance is: 0
39976500: system.cpu: Ins: 6306136064, 177e00000 @ PE 8
39976500: global: Predictor bit: 0	 Opcode: 7
39976500: global: CGRA: NOOP.Execute()
39976500: global: Distance is: 0
39976500: system.cpu: Ins: 6306136064, 177e00000 @ PE 9
39976500: global: Predictor bit: 0	 Opcode: 7
39976500: global: CGRA: NOOP.Execute()
39976500: global: Distance is: 0
39976500: system.cpu: Ins: 6306136064, 177e00000 @ PE 10
39976500: global: Predictor bit: 0	 Opcode: 7
39976500: global: CGRA: NOOP.Execute()
39976500: global: Distance is: 0
39976500: system.cpu: Ins: 6306136064, 177e00000 @ PE 11
39976500: global: Predictor bit: 0	 Opcode: 7
39976500: global: CGRA: NOOP.Execute()
39976500: global: Distance is: 0
39976500: system.cpu: Ins: 6306136064, 177e00000 @ PE 12
39976500: global: Predictor bit: 0	 Opcode: 7
39976500: global: CGRA: NOOP.Execute()
39976500: global: Distance is: 0
39976500: system.cpu: Ins: 6306136064, 177e00000 @ PE 13
39976500: global: Predictor bit: 0	 Opcode: 7
39976500: global: CGRA: NOOP.Execute()
39976500: global: Distance is: 0
39976500: system.cpu: Ins: 6306136064, 177e00000 @ PE 14
39976500: global: Predictor bit: 0	 Opcode: 7
39976500: global: CGRA: NOOP.Execute()
39976500: global: Distance is: 0
39976500: system.cpu: Ins: 6306136064, 177e00000 @ PE 15
39976500: global: Predictor bit: 0	 Opcode: 7
39976500: global: CGRA: NOOP.Execute()
39976500: global: Distance is: 0

************* MEM READ *************
Row: 0 - address: 632384 - data: 10
39976500: system.cpu: CGRA advanceTime complete.
39976500: system.cpu: *******IN ADVANCE PC******
39976500: system.cpu: build/ARM/cpu/atomiccgra/atomiccgra.cc,CGRA_advancePC,1759,PC:a4a70
39976500: system.cpu: Passed Complete Drain().
39976500: system.cpu: Make latency status=1.
39976500: system.cpu: Inside status idle.
39976500: system.cpu: Exiting schedule events
39976500: system.cpu: We are here after Execution
39977000: system.cpu: Inside CGRA Execution else statement.
39977000: system.cpu: Inside CGRA_Execution block.
39977000: system.cpu: 
CALL IN NOW CGRA_Execution.
39977000: global: 
******** DB INPUT2 ReadAddress0************
39977000: global: 
IN READ REGFILE R0 = 10
39977000: global: R0: 10	R1: 0	R2: 0	R3: 0

*********** CGRA EXECUTE - PRINT C ****************

39977000: system.cpu: Ins: 4798300160, 11e004000 @ PE 0
39977000: global: Predictor bit: 1	 Opcode: 1
39977000: global: 
Input1 = 0	Input2 = 10
39977000: global: 
******** LDI IN THIS PE 0************
39977000: global: 
************** WE *****************
39977000: global: 
WRITE: REG NUMBER: 0 dist: 0
39977000: global: R0: 0	R1: 0	R2: 0	R3: 0
39977000: global: 
WRITE: FPREG NUMBER: 0 dist: 0
39977000: global: FPR0: 0	FPR1: 0	FPR2: 0	FPR3: 0
39977000: global: Writing output 0 to register 0
39977000: global: Distance is: 0
39977000: system.cpu: Ins: 6306136064, 177e00000 @ PE 1
39977000: global: Predictor bit: 0	 Opcode: 7
39977000: global: CGRA: NOOP.Execute()
39977000: global: Distance is: 0
39977000: system.cpu: Ins: 6306136064, 177e00000 @ PE 2
39977000: global: Predictor bit: 0	 Opcode: 7
39977000: global: CGRA: NOOP.Execute()
39977000: global: Distance is: 0
39977000: system.cpu: Ins: 6306136064, 177e00000 @ PE 3
39977000: global: Predictor bit: 0	 Opcode: 7
39977000: global: CGRA: NOOP.Execute()
39977000: global: Distance is: 0
39977000: system.cpu: Ins: 6306136064, 177e00000 @ PE 4
39977000: global: Predictor bit: 0	 Opcode: 7
39977000: global: CGRA: NOOP.Execute()
39977000: global: Distance is: 0
39977000: system.cpu: Ins: 6306136064, 177e00000 @ PE 5
39977000: global: Predictor bit: 0	 Opcode: 7
39977000: global: CGRA: NOOP.Execute()
39977000: global: Distance is: 0
39977000: system.cpu: Ins: 6306136064, 177e00000 @ PE 6
39977000: global: Predictor bit: 0	 Opcode: 7
39977000: global: CGRA: NOOP.Execute()
39977000: global: Distance is: 0
39977000: system.cpu: Ins: 6306136064, 177e00000 @ PE 7
39977000: global: Predictor bit: 0	 Opcode: 7
39977000: global: CGRA: NOOP.Execute()
39977000: global: Distance is: 0
39977000: system.cpu: Ins: 6306136064, 177e00000 @ PE 8
39977000: global: Predictor bit: 0	 Opcode: 7
39977000: global: CGRA: NOOP.Execute()
39977000: global: Distance is: 0
39977000: system.cpu: Ins: 6306136064, 177e00000 @ PE 9
39977000: global: Predictor bit: 0	 Opcode: 7
39977000: global: CGRA: NOOP.Execute()
39977000: global: Distance is: 0
39977000: system.cpu: Ins: 6306136064, 177e00000 @ PE 10
39977000: global: Predictor bit: 0	 Opcode: 7
39977000: global: CGRA: NOOP.Execute()
39977000: global: Distance is: 0
39977000: system.cpu: Ins: 6306136064, 177e00000 @ PE 11
39977000: global: Predictor bit: 0	 Opcode: 7
39977000: global: CGRA: NOOP.Execute()
39977000: global: Distance is: 0
39977000: system.cpu: Ins: 6306136064, 177e00000 @ PE 12
39977000: global: Predictor bit: 0	 Opcode: 7
39977000: global: CGRA: NOOP.Execute()
39977000: global: Distance is: 0
39977000: system.cpu: Ins: 6306136064, 177e00000 @ PE 13
39977000: global: Predictor bit: 0	 Opcode: 7
39977000: global: CGRA: NOOP.Execute()
39977000: global: Distance is: 0
39977000: system.cpu: Ins: 6306136064, 177e00000 @ PE 14
39977000: global: Predictor bit: 0	 Opcode: 7
39977000: global: CGRA: NOOP.Execute()
39977000: global: Distance is: 0
39977000: system.cpu: Ins: 6306136064, 177e00000 @ PE 15
39977000: global: Predictor bit: 0	 Opcode: 7
39977000: global: CGRA: NOOP.Execute()
39977000: global: Distance is: 0

************* MEM READ *************
Row: 0 - address: 632384 - data: 10
39977000: system.cpu: CGRA advanceTime complete.
39977000: system.cpu: *******IN ADVANCE PC******
39977000: system.cpu: build/ARM/cpu/atomiccgra/atomiccgra.cc,CGRA_advancePC,1759,PC:a4af0
39977000: system.cpu: Passed Complete Drain().
39977000: system.cpu: Make latency status=1.
39977000: system.cpu: Inside status idle.
39977000: system.cpu: Exiting schedule events
39977000: system.cpu: We are here after Execution
39977500: system.cpu: Inside CGRA Execution else statement.
39977500: system.cpu: Inside CGRA_Execution block.
39977500: system.cpu: 
CALL IN NOW CGRA_Execution.
39977500: global: 
******** DB INPUT2 ReadAddress0************
39977500: global: 
IN READ REGFILE R0 = 0
39977500: global: R0: 0	R1: 0	R2: 0	R3: 0

*********** CGRA EXECUTE - PRINT C ****************

39977500: system.cpu: Ins: 5066735616, 12e004000 @ PE 0
39977500: global: Predictor bit: 1	 Opcode: 2
39977500: global: 
Input1 = 0	Input2 = 0
39977500: global: 
******** LDMI IN THIS PE 0************
39977500: global: 
************** WE *****************
39977500: global: 
IN READ REGFILE R0 = 0
39977500: global: R0: 0	R1: 0	R2: 0	R3: 0
39977500: global: 
WRITE: REG NUMBER: 0 dist: 0
39977500: global: R0: 0	R1: 0	R2: 0	R3: 0
39977500: global: 
WRITE: FPREG NUMBER: 0 dist: 0
39977500: global: FPR0: 0	FPR1: 0	FPR2: 0	FPR3: 0
39977500: global: Writing output 0 to register 0
39977500: global: Distance is: 0
39977500: system.cpu: Ins: 6306136064, 177e00000 @ PE 1
39977500: global: Predictor bit: 0	 Opcode: 7
39977500: global: CGRA: NOOP.Execute()
39977500: global: Distance is: 0
39977500: system.cpu: Ins: 6306136064, 177e00000 @ PE 2
39977500: global: Predictor bit: 0	 Opcode: 7
39977500: global: CGRA: NOOP.Execute()
39977500: global: Distance is: 0
39977500: system.cpu: Ins: 6306136064, 177e00000 @ PE 3
39977500: global: Predictor bit: 0	 Opcode: 7
39977500: global: CGRA: NOOP.Execute()
39977500: global: Distance is: 0
39977500: system.cpu: Ins: 6306136064, 177e00000 @ PE 4
39977500: global: Predictor bit: 0	 Opcode: 7
39977500: global: CGRA: NOOP.Execute()
39977500: global: Distance is: 0
39977500: system.cpu: Ins: 6306136064, 177e00000 @ PE 5
39977500: global: Predictor bit: 0	 Opcode: 7
39977500: global: CGRA: NOOP.Execute()
39977500: global: Distance is: 0
39977500: system.cpu: Ins: 6306136064, 177e00000 @ PE 6
39977500: global: Predictor bit: 0	 Opcode: 7
39977500: global: CGRA: NOOP.Execute()
39977500: global: Distance is: 0
39977500: system.cpu: Ins: 6306136064, 177e00000 @ PE 7
39977500: global: Predictor bit: 0	 Opcode: 7
39977500: global: CGRA: NOOP.Execute()
39977500: global: Distance is: 0
39977500: system.cpu: Ins: 6306136064, 177e00000 @ PE 8
39977500: global: Predictor bit: 0	 Opcode: 7
39977500: global: CGRA: NOOP.Execute()
39977500: global: Distance is: 0
39977500: system.cpu: Ins: 6306136064, 177e00000 @ PE 9
39977500: global: Predictor bit: 0	 Opcode: 7
39977500: global: CGRA: NOOP.Execute()
39977500: global: Distance is: 0
39977500: system.cpu: Ins: 6306136064, 177e00000 @ PE 10
39977500: global: Predictor bit: 0	 Opcode: 7
39977500: global: CGRA: NOOP.Execute()
39977500: global: Distance is: 0
39977500: system.cpu: Ins: 6306136064, 177e00000 @ PE 11
39977500: global: Predictor bit: 0	 Opcode: 7
39977500: global: CGRA: NOOP.Execute()
39977500: global: Distance is: 0
39977500: system.cpu: Ins: 6306136064, 177e00000 @ PE 12
39977500: global: Predictor bit: 0	 Opcode: 7
39977500: global: CGRA: NOOP.Execute()
39977500: global: Distance is: 0
39977500: system.cpu: Ins: 6306136064, 177e00000 @ PE 13
39977500: global: Predictor bit: 0	 Opcode: 7
39977500: global: CGRA: NOOP.Execute()
39977500: global: Distance is: 0
39977500: system.cpu: Ins: 6306136064, 177e00000 @ PE 14
39977500: global: Predictor bit: 0	 Opcode: 7
39977500: global: CGRA: NOOP.Execute()
39977500: global: Distance is: 0
39977500: system.cpu: Ins: 6306136064, 177e00000 @ PE 15
39977500: global: Predictor bit: 0	 Opcode: 7
39977500: global: CGRA: NOOP.Execute()
39977500: global: Distance is: 0

************* MEM READ *************
Row: 0 - address: 632384 - data: 10
39977500: system.cpu: CGRA advanceTime complete.
39977500: system.cpu: *******IN ADVANCE PC******
39977500: system.cpu: build/ARM/cpu/atomiccgra/atomiccgra.cc,CGRA_advancePC,1759,PC:a4b70
39977500: system.cpu: Passed Complete Drain().
39977500: system.cpu: Make latency status=1.
39977500: system.cpu: Inside status idle.
39977500: system.cpu: Exiting schedule events
39977500: system.cpu: We are here after Execution
39978000: system.cpu: Inside CGRA Execution else statement.
39978000: system.cpu: Inside CGRA_Execution block.
39978000: system.cpu: 
CALL IN NOW CGRA_Execution.
39978000: global: 
******** DB INPUT2 ReadAddress0************
39978000: global: 
IN READ REGFILE R0 = 0
39978000: global: R0: 0	R1: 0	R2: 0	R3: 0

*********** CGRA EXECUTE - PRINT C ****************

39978000: system.cpu: Ins: 5335171072, 13e004000 @ PE 0
39978000: global: Predictor bit: 1	 Opcode: 3
39978000: global: 
Input1 = 0	Input2 = 0
39978000: global: 
******** LDUI IN THIS PE 0************
39978000: global: 
************** WE *****************
39978000: global: 
IN READ REGFILE R0 = 0
39978000: global: R0: 0	R1: 0	R2: 0	R3: 0
39978000: global: 
WRITE: REG NUMBER: 0 dist: 0
39978000: global: R0: 0	R1: 0	R2: 0	R3: 0
39978000: global: 
WRITE: FPREG NUMBER: 0 dist: 0
39978000: global: FPR0: 0	FPR1: 0	FPR2: 0	FPR3: 0
39978000: global: Writing output 0 to register 0
39978000: global: Distance is: 0
39978000: system.cpu: Ins: 6306136064, 177e00000 @ PE 1
39978000: global: Predictor bit: 0	 Opcode: 7
39978000: global: CGRA: NOOP.Execute()
39978000: global: Distance is: 0
39978000: system.cpu: Ins: 6306136064, 177e00000 @ PE 2
39978000: global: Predictor bit: 0	 Opcode: 7
39978000: global: CGRA: NOOP.Execute()
39978000: global: Distance is: 0
39978000: system.cpu: Ins: 6306136064, 177e00000 @ PE 3
39978000: global: Predictor bit: 0	 Opcode: 7
39978000: global: CGRA: NOOP.Execute()
39978000: global: Distance is: 0
39978000: system.cpu: Ins: 6306136064, 177e00000 @ PE 4
39978000: global: Predictor bit: 0	 Opcode: 7
39978000: global: CGRA: NOOP.Execute()
39978000: global: Distance is: 0
39978000: system.cpu: Ins: 6306136064, 177e00000 @ PE 5
39978000: global: Predictor bit: 0	 Opcode: 7
39978000: global: CGRA: NOOP.Execute()
39978000: global: Distance is: 0
39978000: system.cpu: Ins: 6306136064, 177e00000 @ PE 6
39978000: global: Predictor bit: 0	 Opcode: 7
39978000: global: CGRA: NOOP.Execute()
39978000: global: Distance is: 0
39978000: system.cpu: Ins: 6306136064, 177e00000 @ PE 7
39978000: global: Predictor bit: 0	 Opcode: 7
39978000: global: CGRA: NOOP.Execute()
39978000: global: Distance is: 0
39978000: system.cpu: Ins: 6306136064, 177e00000 @ PE 8
39978000: global: Predictor bit: 0	 Opcode: 7
39978000: global: CGRA: NOOP.Execute()
39978000: global: Distance is: 0
39978000: system.cpu: Ins: 6306136064, 177e00000 @ PE 9
39978000: global: Predictor bit: 0	 Opcode: 7
39978000: global: CGRA: NOOP.Execute()
39978000: global: Distance is: 0
39978000: system.cpu: Ins: 6306136064, 177e00000 @ PE 10
39978000: global: Predictor bit: 0	 Opcode: 7
39978000: global: CGRA: NOOP.Execute()
39978000: global: Distance is: 0
39978000: system.cpu: Ins: 6306136064, 177e00000 @ PE 11
39978000: global: Predictor bit: 0	 Opcode: 7
39978000: global: CGRA: NOOP.Execute()
39978000: global: Distance is: 0
39978000: system.cpu: Ins: 6306136064, 177e00000 @ PE 12
39978000: global: Predictor bit: 0	 Opcode: 7
39978000: global: CGRA: NOOP.Execute()
39978000: global: Distance is: 0
39978000: system.cpu: Ins: 6306136064, 177e00000 @ PE 13
39978000: global: Predictor bit: 0	 Opcode: 7
39978000: global: CGRA: NOOP.Execute()
39978000: global: Distance is: 0
39978000: system.cpu: Ins: 6306136064, 177e00000 @ PE 14
39978000: global: Predictor bit: 0	 Opcode: 7
39978000: global: CGRA: NOOP.Execute()
39978000: global: Distance is: 0
39978000: system.cpu: Ins: 6306136064, 177e00000 @ PE 15
39978000: global: Predictor bit: 0	 Opcode: 7
39978000: global: CGRA: NOOP.Execute()
39978000: global: Distance is: 0

************* MEM READ *************
Row: 0 - address: 632384 - data: 10
39978000: system.cpu: CGRA advanceTime complete.
39978000: system.cpu: *******IN ADVANCE PC******
39978000: system.cpu: build/ARM/cpu/atomiccgra/atomiccgra.cc,CGRA_advancePC,1759,PC:a4bf0
39978000: system.cpu: Passed Complete Drain().
39978000: system.cpu: Make latency status=1.
39978000: system.cpu: Inside status idle.
39978000: system.cpu: Exiting schedule events
39978000: system.cpu: We are here after Execution
39978500: system.cpu: Inside CGRA Execution else statement.
39978500: system.cpu: Inside CGRA_Execution block.
39978500: system.cpu: 
CALL IN NOW CGRA_Execution.
39978500: global: 
******** DB INPUT2 ReadAddress0************
39978500: global: 
IN READ REGFILE R0 = 0
39978500: global: R0: 0	R1: 0	R2: 0	R3: 0

*********** CGRA EXECUTE - PRINT C ****************

39978500: system.cpu: Ins: 4798332933, 11e00c005 @ PE 0
39978500: global: Predictor bit: 1	 Opcode: 1
39978500: global: 
Input1 = 5	Input2 = 0
39978500: global: 
******** LDI IN THIS PE 5************
39978500: global: 
************** WE *****************
39978500: global: 
WRITE: REG NUMBER: 1 dist: 0
39978500: global: R0: 0	R1: 5	R2: 0	R3: 0
39978500: global: 
WRITE: FPREG NUMBER: 1 dist: 0
39978500: global: FPR0: 0	FPR1: 5	FPR2: 0	FPR3: 0
39978500: global: Writing output 5 to register 1
39978500: global: Distance is: 0
39978500: system.cpu: Ins: 6306136064, 177e00000 @ PE 1
39978500: global: Predictor bit: 0	 Opcode: 7
39978500: global: CGRA: NOOP.Execute()
39978500: global: Distance is: 0
39978500: system.cpu: Ins: 6306136064, 177e00000 @ PE 2
39978500: global: Predictor bit: 0	 Opcode: 7
39978500: global: CGRA: NOOP.Execute()
39978500: global: Distance is: 0
39978500: system.cpu: Ins: 6306136064, 177e00000 @ PE 3
39978500: global: Predictor bit: 0	 Opcode: 7
39978500: global: CGRA: NOOP.Execute()
39978500: global: Distance is: 0
39978500: system.cpu: Ins: 6306136064, 177e00000 @ PE 4
39978500: global: Predictor bit: 0	 Opcode: 7
39978500: global: CGRA: NOOP.Execute()
39978500: global: Distance is: 0
39978500: system.cpu: Ins: 6306136064, 177e00000 @ PE 5
39978500: global: Predictor bit: 0	 Opcode: 7
39978500: global: CGRA: NOOP.Execute()
39978500: global: Distance is: 0
39978500: system.cpu: Ins: 6306136064, 177e00000 @ PE 6
39978500: global: Predictor bit: 0	 Opcode: 7
39978500: global: CGRA: NOOP.Execute()
39978500: global: Distance is: 0
39978500: system.cpu: Ins: 6306136064, 177e00000 @ PE 7
39978500: global: Predictor bit: 0	 Opcode: 7
39978500: global: CGRA: NOOP.Execute()
39978500: global: Distance is: 0
39978500: system.cpu: Ins: 6306136064, 177e00000 @ PE 8
39978500: global: Predictor bit: 0	 Opcode: 7
39978500: global: CGRA: NOOP.Execute()
39978500: global: Distance is: 0
39978500: system.cpu: Ins: 6306136064, 177e00000 @ PE 9
39978500: global: Predictor bit: 0	 Opcode: 7
39978500: global: CGRA: NOOP.Execute()
39978500: global: Distance is: 0
39978500: system.cpu: Ins: 6306136064, 177e00000 @ PE 10
39978500: global: Predictor bit: 0	 Opcode: 7
39978500: global: CGRA: NOOP.Execute()
39978500: global: Distance is: 0
39978500: system.cpu: Ins: 6306136064, 177e00000 @ PE 11
39978500: global: Predictor bit: 0	 Opcode: 7
39978500: global: CGRA: NOOP.Execute()
39978500: global: Distance is: 0
39978500: system.cpu: Ins: 6306136064, 177e00000 @ PE 12
39978500: global: Predictor bit: 0	 Opcode: 7
39978500: global: CGRA: NOOP.Execute()
39978500: global: Distance is: 0
39978500: system.cpu: Ins: 6306136064, 177e00000 @ PE 13
39978500: global: Predictor bit: 0	 Opcode: 7
39978500: global: CGRA: NOOP.Execute()
39978500: global: Distance is: 0
39978500: system.cpu: Ins: 6306136064, 177e00000 @ PE 14
39978500: global: Predictor bit: 0	 Opcode: 7
39978500: global: CGRA: NOOP.Execute()
39978500: global: Distance is: 0
39978500: system.cpu: Ins: 6306136064, 177e00000 @ PE 15
39978500: global: Predictor bit: 0	 Opcode: 7
39978500: global: CGRA: NOOP.Execute()
39978500: global: Distance is: 0

************* MEM READ *************
Row: 0 - address: 632384 - data: 10
39978500: system.cpu: CGRA advanceTime complete.
39978500: system.cpu: *******IN ADVANCE PC******
39978500: system.cpu: build/ARM/cpu/atomiccgra/atomiccgra.cc,CGRA_advancePC,1759,PC:a4c70
39978500: system.cpu: Passed Complete Drain().
39978500: system.cpu: Make latency status=1.
39978500: system.cpu: Inside status idle.
39978500: system.cpu: Exiting schedule events
39978500: system.cpu: We are here after Execution
39979000: system.cpu: Inside CGRA Execution else statement.
39979000: system.cpu: Inside CGRA_Execution block.
39979000: system.cpu: 
CALL IN NOW CGRA_Execution.
39979000: global: 
******** DB INPUT2 ReadAddress0************
39979000: global: 
IN READ REGFILE R0 = 0
39979000: global: R0: 0	R1: 5	R2: 0	R3: 0

*********** CGRA EXECUTE - PRINT C ****************

39979000: system.cpu: Ins: 5066768384, 12e00c000 @ PE 0
39979000: global: Predictor bit: 1	 Opcode: 2
39979000: global: 
Input1 = 0	Input2 = 0
39979000: global: 
******** LDMI IN THIS PE 0************
39979000: global: 
************** WE *****************
39979000: global: 
IN READ REGFILE R0 = 0
39979000: global: R0: 0	R1: 5	R2: 0	R3: 0
39979000: global: 
WRITE: REG NUMBER: 1 dist: 0
39979000: global: R0: 0	R1: 5	R2: 0	R3: 0
39979000: global: 
WRITE: FPREG NUMBER: 1 dist: 0
39979000: global: FPR0: 0	FPR1: 5	FPR2: 0	FPR3: 0
39979000: global: Writing output 5 to register 1
39979000: global: Distance is: 0
39979000: system.cpu: Ins: 6306136064, 177e00000 @ PE 1
39979000: global: Predictor bit: 0	 Opcode: 7
39979000: global: CGRA: NOOP.Execute()
39979000: global: Distance is: 0
39979000: system.cpu: Ins: 6306136064, 177e00000 @ PE 2
39979000: global: Predictor bit: 0	 Opcode: 7
39979000: global: CGRA: NOOP.Execute()
39979000: global: Distance is: 0
39979000: system.cpu: Ins: 6306136064, 177e00000 @ PE 3
39979000: global: Predictor bit: 0	 Opcode: 7
39979000: global: CGRA: NOOP.Execute()
39979000: global: Distance is: 0
39979000: system.cpu: Ins: 6306136064, 177e00000 @ PE 4
39979000: global: Predictor bit: 0	 Opcode: 7
39979000: global: CGRA: NOOP.Execute()
39979000: global: Distance is: 0
39979000: system.cpu: Ins: 6306136064, 177e00000 @ PE 5
39979000: global: Predictor bit: 0	 Opcode: 7
39979000: global: CGRA: NOOP.Execute()
39979000: global: Distance is: 0
39979000: system.cpu: Ins: 6306136064, 177e00000 @ PE 6
39979000: global: Predictor bit: 0	 Opcode: 7
39979000: global: CGRA: NOOP.Execute()
39979000: global: Distance is: 0
39979000: system.cpu: Ins: 6306136064, 177e00000 @ PE 7
39979000: global: Predictor bit: 0	 Opcode: 7
39979000: global: CGRA: NOOP.Execute()
39979000: global: Distance is: 0
39979000: system.cpu: Ins: 6306136064, 177e00000 @ PE 8
39979000: global: Predictor bit: 0	 Opcode: 7
39979000: global: CGRA: NOOP.Execute()
39979000: global: Distance is: 0
39979000: system.cpu: Ins: 6306136064, 177e00000 @ PE 9
39979000: global: Predictor bit: 0	 Opcode: 7
39979000: global: CGRA: NOOP.Execute()
39979000: global: Distance is: 0
39979000: system.cpu: Ins: 6306136064, 177e00000 @ PE 10
39979000: global: Predictor bit: 0	 Opcode: 7
39979000: global: CGRA: NOOP.Execute()
39979000: global: Distance is: 0
39979000: system.cpu: Ins: 6306136064, 177e00000 @ PE 11
39979000: global: Predictor bit: 0	 Opcode: 7
39979000: global: CGRA: NOOP.Execute()
39979000: global: Distance is: 0
39979000: system.cpu: Ins: 6306136064, 177e00000 @ PE 12
39979000: global: Predictor bit: 0	 Opcode: 7
39979000: global: CGRA: NOOP.Execute()
39979000: global: Distance is: 0
39979000: system.cpu: Ins: 6306136064, 177e00000 @ PE 13
39979000: global: Predictor bit: 0	 Opcode: 7
39979000: global: CGRA: NOOP.Execute()
39979000: global: Distance is: 0
39979000: system.cpu: Ins: 6306136064, 177e00000 @ PE 14
39979000: global: Predictor bit: 0	 Opcode: 7
39979000: global: CGRA: NOOP.Execute()
39979000: global: Distance is: 0
39979000: system.cpu: Ins: 6306136064, 177e00000 @ PE 15
39979000: global: Predictor bit: 0	 Opcode: 7
39979000: global: CGRA: NOOP.Execute()
39979000: global: Distance is: 0

************* MEM READ *************
Row: 0 - address: 632384 - data: 10
39979000: system.cpu: CGRA advanceTime complete.
39979000: system.cpu: *******IN ADVANCE PC******
39979000: system.cpu: build/ARM/cpu/atomiccgra/atomiccgra.cc,CGRA_advancePC,1759,PC:a4cf0
39979000: system.cpu: Passed Complete Drain().
39979000: system.cpu: Make latency status=1.
39979000: system.cpu: Inside status idle.
39979000: system.cpu: Exiting schedule events
39979000: system.cpu: We are here after Execution
39979500: system.cpu: Inside CGRA Execution else statement.
39979500: system.cpu: Inside CGRA_Execution block.
39979500: system.cpu: 
CALL IN NOW CGRA_Execution.
39979500: global: 
******** DB INPUT2 ReadAddress0************
39979500: global: 
IN READ REGFILE R0 = 0
39979500: global: R0: 0	R1: 5	R2: 0	R3: 0

*********** CGRA EXECUTE - PRINT C ****************

39979500: system.cpu: Ins: 5335203840, 13e00c000 @ PE 0
39979500: global: Predictor bit: 1	 Opcode: 3
39979500: global: 
Input1 = 0	Input2 = 0
39979500: global: 
******** LDUI IN THIS PE 0************
39979500: global: 
************** WE *****************
39979500: global: 
IN READ REGFILE R0 = 0
39979500: global: R0: 0	R1: 5	R2: 0	R3: 0
39979500: global: 
WRITE: REG NUMBER: 1 dist: 0
39979500: global: R0: 0	R1: 5	R2: 0	R3: 0
39979500: global: 
WRITE: FPREG NUMBER: 1 dist: 0
39979500: global: FPR0: 0	FPR1: 5	FPR2: 0	FPR3: 0
39979500: global: Writing output 5 to register 1
39979500: global: Distance is: 0
39979500: system.cpu: Ins: 6306136064, 177e00000 @ PE 1
39979500: global: Predictor bit: 0	 Opcode: 7
39979500: global: CGRA: NOOP.Execute()
39979500: global: Distance is: 0
39979500: system.cpu: Ins: 6306136064, 177e00000 @ PE 2
39979500: global: Predictor bit: 0	 Opcode: 7
39979500: global: CGRA: NOOP.Execute()
39979500: global: Distance is: 0
39979500: system.cpu: Ins: 6306136064, 177e00000 @ PE 3
39979500: global: Predictor bit: 0	 Opcode: 7
39979500: global: CGRA: NOOP.Execute()
39979500: global: Distance is: 0
39979500: system.cpu: Ins: 6306136064, 177e00000 @ PE 4
39979500: global: Predictor bit: 0	 Opcode: 7
39979500: global: CGRA: NOOP.Execute()
39979500: global: Distance is: 0
39979500: system.cpu: Ins: 6306136064, 177e00000 @ PE 5
39979500: global: Predictor bit: 0	 Opcode: 7
39979500: global: CGRA: NOOP.Execute()
39979500: global: Distance is: 0
39979500: system.cpu: Ins: 6306136064, 177e00000 @ PE 6
39979500: global: Predictor bit: 0	 Opcode: 7
39979500: global: CGRA: NOOP.Execute()
39979500: global: Distance is: 0
39979500: system.cpu: Ins: 6306136064, 177e00000 @ PE 7
39979500: global: Predictor bit: 0	 Opcode: 7
39979500: global: CGRA: NOOP.Execute()
39979500: global: Distance is: 0
39979500: system.cpu: Ins: 6306136064, 177e00000 @ PE 8
39979500: global: Predictor bit: 0	 Opcode: 7
39979500: global: CGRA: NOOP.Execute()
39979500: global: Distance is: 0
39979500: system.cpu: Ins: 6306136064, 177e00000 @ PE 9
39979500: global: Predictor bit: 0	 Opcode: 7
39979500: global: CGRA: NOOP.Execute()
39979500: global: Distance is: 0
39979500: system.cpu: Ins: 6306136064, 177e00000 @ PE 10
39979500: global: Predictor bit: 0	 Opcode: 7
39979500: global: CGRA: NOOP.Execute()
39979500: global: Distance is: 0
39979500: system.cpu: Ins: 6306136064, 177e00000 @ PE 11
39979500: global: Predictor bit: 0	 Opcode: 7
39979500: global: CGRA: NOOP.Execute()
39979500: global: Distance is: 0
39979500: system.cpu: Ins: 6306136064, 177e00000 @ PE 12
39979500: global: Predictor bit: 0	 Opcode: 7
39979500: global: CGRA: NOOP.Execute()
39979500: global: Distance is: 0
39979500: system.cpu: Ins: 6306136064, 177e00000 @ PE 13
39979500: global: Predictor bit: 0	 Opcode: 7
39979500: global: CGRA: NOOP.Execute()
39979500: global: Distance is: 0
39979500: system.cpu: Ins: 6306136064, 177e00000 @ PE 14
39979500: global: Predictor bit: 0	 Opcode: 7
39979500: global: CGRA: NOOP.Execute()
39979500: global: Distance is: 0
39979500: system.cpu: Ins: 6306136064, 177e00000 @ PE 15
39979500: global: Predictor bit: 0	 Opcode: 7
39979500: global: CGRA: NOOP.Execute()
39979500: global: Distance is: 0

************* MEM READ *************
Row: 0 - address: 632384 - data: 10
39979500: system.cpu: CGRA advanceTime complete.
39979500: system.cpu: *******IN ADVANCE PC******
39979500: system.cpu: build/ARM/cpu/atomiccgra/atomiccgra.cc,CGRA_advancePC,1759,PC:a4d70
39979500: system.cpu: Passed Complete Drain().
39979500: system.cpu: Make latency status=1.
39979500: system.cpu: Inside status idle.
39979500: system.cpu: Exiting schedule events
39979500: system.cpu: We are here after Execution
39980000: system.cpu: Inside CGRA Execution else statement.
39980000: system.cpu: Inside CGRA_Execution block.
39980000: system.cpu: 
CALL IN NOW CGRA_Execution.
39980000: global: 
******** DB INPUT2 ReadAddress0************
39980000: global: 
IN READ REGFILE R0 = 0
39980000: global: R0: 0	R1: 5	R2: 0	R3: 0

*********** CGRA EXECUTE - PRINT C ****************

39980000: system.cpu: Ins: 4798365729, 11e014021 @ PE 0
39980000: global: Predictor bit: 1	 Opcode: 1
39980000: global: 
Input1 = 33	Input2 = 0
39980000: global: 
******** LDI IN THIS PE 33************
39980000: global: 
************** WE *****************
39980000: global: 
WRITE: REG NUMBER: 2 dist: 0
39980000: global: R0: 0	R1: 5	R2: 33	R3: 0
39980000: global: 
WRITE: FPREG NUMBER: 2 dist: 0
39980000: global: FPR0: 0	FPR1: 5	FPR2: 33	FPR3: 0
39980000: global: Writing output 33 to register 2
39980000: global: Distance is: 0
39980000: system.cpu: Ins: 6306136064, 177e00000 @ PE 1
39980000: global: Predictor bit: 0	 Opcode: 7
39980000: global: CGRA: NOOP.Execute()
39980000: global: Distance is: 0
39980000: system.cpu: Ins: 6306136064, 177e00000 @ PE 2
39980000: global: Predictor bit: 0	 Opcode: 7
39980000: global: CGRA: NOOP.Execute()
39980000: global: Distance is: 0
39980000: system.cpu: Ins: 6306136064, 177e00000 @ PE 3
39980000: global: Predictor bit: 0	 Opcode: 7
39980000: global: CGRA: NOOP.Execute()
39980000: global: Distance is: 0
39980000: system.cpu: Ins: 6306136064, 177e00000 @ PE 4
39980000: global: Predictor bit: 0	 Opcode: 7
39980000: global: CGRA: NOOP.Execute()
39980000: global: Distance is: 0
39980000: system.cpu: Ins: 6306136064, 177e00000 @ PE 5
39980000: global: Predictor bit: 0	 Opcode: 7
39980000: global: CGRA: NOOP.Execute()
39980000: global: Distance is: 0
39980000: system.cpu: Ins: 6306136064, 177e00000 @ PE 6
39980000: global: Predictor bit: 0	 Opcode: 7
39980000: global: CGRA: NOOP.Execute()
39980000: global: Distance is: 0
39980000: system.cpu: Ins: 6306136064, 177e00000 @ PE 7
39980000: global: Predictor bit: 0	 Opcode: 7
39980000: global: CGRA: NOOP.Execute()
39980000: global: Distance is: 0
39980000: system.cpu: Ins: 6306136064, 177e00000 @ PE 8
39980000: global: Predictor bit: 0	 Opcode: 7
39980000: global: CGRA: NOOP.Execute()
39980000: global: Distance is: 0
39980000: system.cpu: Ins: 6306136064, 177e00000 @ PE 9
39980000: global: Predictor bit: 0	 Opcode: 7
39980000: global: CGRA: NOOP.Execute()
39980000: global: Distance is: 0
39980000: system.cpu: Ins: 6306136064, 177e00000 @ PE 10
39980000: global: Predictor bit: 0	 Opcode: 7
39980000: global: CGRA: NOOP.Execute()
39980000: global: Distance is: 0
39980000: system.cpu: Ins: 6306136064, 177e00000 @ PE 11
39980000: global: Predictor bit: 0	 Opcode: 7
39980000: global: CGRA: NOOP.Execute()
39980000: global: Distance is: 0
39980000: system.cpu: Ins: 6306136064, 177e00000 @ PE 12
39980000: global: Predictor bit: 0	 Opcode: 7
39980000: global: CGRA: NOOP.Execute()
39980000: global: Distance is: 0
39980000: system.cpu: Ins: 6306136064, 177e00000 @ PE 13
39980000: global: Predictor bit: 0	 Opcode: 7
39980000: global: CGRA: NOOP.Execute()
39980000: global: Distance is: 0
39980000: system.cpu: Ins: 6306136064, 177e00000 @ PE 14
39980000: global: Predictor bit: 0	 Opcode: 7
39980000: global: CGRA: NOOP.Execute()
39980000: global: Distance is: 0
39980000: system.cpu: Ins: 6306136064, 177e00000 @ PE 15
39980000: global: Predictor bit: 0	 Opcode: 7
39980000: global: CGRA: NOOP.Execute()
39980000: global: Distance is: 0

************* MEM READ *************
Row: 0 - address: 632384 - data: 10
39980000: system.cpu: CGRA advanceTime complete.
39980000: system.cpu: *******IN ADVANCE PC******
39980000: system.cpu: build/ARM/cpu/atomiccgra/atomiccgra.cc,CGRA_advancePC,1759,PC:a4df0
39980000: system.cpu: Passed Complete Drain().
39980000: system.cpu: Make latency status=1.
39980000: system.cpu: Inside status idle.
39980000: system.cpu: Exiting schedule events
39980000: system.cpu: We are here after Execution
39980500: system.cpu: Inside CGRA Execution else statement.
39980500: system.cpu: Inside CGRA_Execution block.
39980500: system.cpu: 
CALL IN NOW CGRA_Execution.
39980500: global: 
******** DB INPUT2 ReadAddress0************
39980500: global: 
IN READ REGFILE R0 = 0
39980500: global: R0: 0	R1: 5	R2: 33	R3: 0

*********** CGRA EXECUTE - PRINT C ****************

39980500: system.cpu: Ins: 5066801152, 12e014000 @ PE 0
39980500: global: Predictor bit: 1	 Opcode: 2
39980500: global: 
Input1 = 0	Input2 = 0
39980500: global: 
******** LDMI IN THIS PE 0************
39980500: global: 
************** WE *****************
39980500: global: 
IN READ REGFILE R0 = 0
39980500: global: R0: 0	R1: 5	R2: 33	R3: 0
39980500: global: 
WRITE: REG NUMBER: 2 dist: 0
39980500: global: R0: 0	R1: 5	R2: 33	R3: 0
39980500: global: 
WRITE: FPREG NUMBER: 2 dist: 0
39980500: global: FPR0: 0	FPR1: 5	FPR2: 33	FPR3: 0
39980500: global: Writing output 33 to register 2
39980500: global: Distance is: 0
39980500: system.cpu: Ins: 6306136064, 177e00000 @ PE 1
39980500: global: Predictor bit: 0	 Opcode: 7
39980500: global: CGRA: NOOP.Execute()
39980500: global: Distance is: 0
39980500: system.cpu: Ins: 6306136064, 177e00000 @ PE 2
39980500: global: Predictor bit: 0	 Opcode: 7
39980500: global: CGRA: NOOP.Execute()
39980500: global: Distance is: 0
39980500: system.cpu: Ins: 6306136064, 177e00000 @ PE 3
39980500: global: Predictor bit: 0	 Opcode: 7
39980500: global: CGRA: NOOP.Execute()
39980500: global: Distance is: 0
39980500: system.cpu: Ins: 6306136064, 177e00000 @ PE 4
39980500: global: Predictor bit: 0	 Opcode: 7
39980500: global: CGRA: NOOP.Execute()
39980500: global: Distance is: 0
39980500: system.cpu: Ins: 6306136064, 177e00000 @ PE 5
39980500: global: Predictor bit: 0	 Opcode: 7
39980500: global: CGRA: NOOP.Execute()
39980500: global: Distance is: 0
39980500: system.cpu: Ins: 6306136064, 177e00000 @ PE 6
39980500: global: Predictor bit: 0	 Opcode: 7
39980500: global: CGRA: NOOP.Execute()
39980500: global: Distance is: 0
39980500: system.cpu: Ins: 6306136064, 177e00000 @ PE 7
39980500: global: Predictor bit: 0	 Opcode: 7
39980500: global: CGRA: NOOP.Execute()
39980500: global: Distance is: 0
39980500: system.cpu: Ins: 6306136064, 177e00000 @ PE 8
39980500: global: Predictor bit: 0	 Opcode: 7
39980500: global: CGRA: NOOP.Execute()
39980500: global: Distance is: 0
39980500: system.cpu: Ins: 6306136064, 177e00000 @ PE 9
39980500: global: Predictor bit: 0	 Opcode: 7
39980500: global: CGRA: NOOP.Execute()
39980500: global: Distance is: 0
39980500: system.cpu: Ins: 6306136064, 177e00000 @ PE 10
39980500: global: Predictor bit: 0	 Opcode: 7
39980500: global: CGRA: NOOP.Execute()
39980500: global: Distance is: 0
39980500: system.cpu: Ins: 6306136064, 177e00000 @ PE 11
39980500: global: Predictor bit: 0	 Opcode: 7
39980500: global: CGRA: NOOP.Execute()
39980500: global: Distance is: 0
39980500: system.cpu: Ins: 6306136064, 177e00000 @ PE 12
39980500: global: Predictor bit: 0	 Opcode: 7
39980500: global: CGRA: NOOP.Execute()
39980500: global: Distance is: 0
39980500: system.cpu: Ins: 6306136064, 177e00000 @ PE 13
39980500: global: Predictor bit: 0	 Opcode: 7
39980500: global: CGRA: NOOP.Execute()
39980500: global: Distance is: 0
39980500: system.cpu: Ins: 6306136064, 177e00000 @ PE 14
39980500: global: Predictor bit: 0	 Opcode: 7
39980500: global: CGRA: NOOP.Execute()
39980500: global: Distance is: 0
39980500: system.cpu: Ins: 6306136064, 177e00000 @ PE 15
39980500: global: Predictor bit: 0	 Opcode: 7
39980500: global: CGRA: NOOP.Execute()
39980500: global: Distance is: 0

************* MEM READ *************
Row: 0 - address: 632384 - data: 10
39980500: system.cpu: CGRA advanceTime complete.
39980500: system.cpu: *******IN ADVANCE PC******
39980500: system.cpu: build/ARM/cpu/atomiccgra/atomiccgra.cc,CGRA_advancePC,1759,PC:a4e70
39980500: system.cpu: Passed Complete Drain().
39980500: system.cpu: Make latency status=1.
39980500: system.cpu: Inside status idle.
39980500: system.cpu: Exiting schedule events
39980500: system.cpu: We are here after Execution
39981000: system.cpu: Inside CGRA Execution else statement.
39981000: system.cpu: Inside CGRA_Execution block.
39981000: system.cpu: 
CALL IN NOW CGRA_Execution.
39981000: global: 
******** DB INPUT2 ReadAddress0************
39981000: global: 
IN READ REGFILE R0 = 0
39981000: global: R0: 0	R1: 5	R2: 33	R3: 0

*********** CGRA EXECUTE - PRINT C ****************

39981000: system.cpu: Ins: 5335236608, 13e014000 @ PE 0
39981000: global: Predictor bit: 1	 Opcode: 3
39981000: global: 
Input1 = 0	Input2 = 0
39981000: global: 
******** LDUI IN THIS PE 0************
39981000: global: 
************** WE *****************
39981000: global: 
IN READ REGFILE R0 = 0
39981000: global: R0: 0	R1: 5	R2: 33	R3: 0
39981000: global: 
WRITE: REG NUMBER: 2 dist: 0
39981000: global: R0: 0	R1: 5	R2: 33	R3: 0
39981000: global: 
WRITE: FPREG NUMBER: 2 dist: 0
39981000: global: FPR0: 0	FPR1: 5	FPR2: 33	FPR3: 0
39981000: global: Writing output 33 to register 2
39981000: global: Distance is: 0
39981000: system.cpu: Ins: 6306136064, 177e00000 @ PE 1
39981000: global: Predictor bit: 0	 Opcode: 7
39981000: global: CGRA: NOOP.Execute()
39981000: global: Distance is: 0
39981000: system.cpu: Ins: 6306136064, 177e00000 @ PE 2
39981000: global: Predictor bit: 0	 Opcode: 7
39981000: global: CGRA: NOOP.Execute()
39981000: global: Distance is: 0
39981000: system.cpu: Ins: 6306136064, 177e00000 @ PE 3
39981000: global: Predictor bit: 0	 Opcode: 7
39981000: global: CGRA: NOOP.Execute()
39981000: global: Distance is: 0
39981000: system.cpu: Ins: 6306136064, 177e00000 @ PE 4
39981000: global: Predictor bit: 0	 Opcode: 7
39981000: global: CGRA: NOOP.Execute()
39981000: global: Distance is: 0
39981000: system.cpu: Ins: 6306136064, 177e00000 @ PE 5
39981000: global: Predictor bit: 0	 Opcode: 7
39981000: global: CGRA: NOOP.Execute()
39981000: global: Distance is: 0
39981000: system.cpu: Ins: 6306136064, 177e00000 @ PE 6
39981000: global: Predictor bit: 0	 Opcode: 7
39981000: global: CGRA: NOOP.Execute()
39981000: global: Distance is: 0
39981000: system.cpu: Ins: 6306136064, 177e00000 @ PE 7
39981000: global: Predictor bit: 0	 Opcode: 7
39981000: global: CGRA: NOOP.Execute()
39981000: global: Distance is: 0
39981000: system.cpu: Ins: 6306136064, 177e00000 @ PE 8
39981000: global: Predictor bit: 0	 Opcode: 7
39981000: global: CGRA: NOOP.Execute()
39981000: global: Distance is: 0
39981000: system.cpu: Ins: 6306136064, 177e00000 @ PE 9
39981000: global: Predictor bit: 0	 Opcode: 7
39981000: global: CGRA: NOOP.Execute()
39981000: global: Distance is: 0
39981000: system.cpu: Ins: 6306136064, 177e00000 @ PE 10
39981000: global: Predictor bit: 0	 Opcode: 7
39981000: global: CGRA: NOOP.Execute()
39981000: global: Distance is: 0
39981000: system.cpu: Ins: 6306136064, 177e00000 @ PE 11
39981000: global: Predictor bit: 0	 Opcode: 7
39981000: global: CGRA: NOOP.Execute()
39981000: global: Distance is: 0
39981000: system.cpu: Ins: 6306136064, 177e00000 @ PE 12
39981000: global: Predictor bit: 0	 Opcode: 7
39981000: global: CGRA: NOOP.Execute()
39981000: global: Distance is: 0
39981000: system.cpu: Ins: 6306136064, 177e00000 @ PE 13
39981000: global: Predictor bit: 0	 Opcode: 7
39981000: global: CGRA: NOOP.Execute()
39981000: global: Distance is: 0
39981000: system.cpu: Ins: 6306136064, 177e00000 @ PE 14
39981000: global: Predictor bit: 0	 Opcode: 7
39981000: global: CGRA: NOOP.Execute()
39981000: global: Distance is: 0
39981000: system.cpu: Ins: 6306136064, 177e00000 @ PE 15
39981000: global: Predictor bit: 0	 Opcode: 7
39981000: global: CGRA: NOOP.Execute()
39981000: global: Distance is: 0

************* MEM READ *************
Row: 0 - address: 632384 - data: 10
39981000: system.cpu: CGRA advanceTime complete.
39981000: system.cpu: *******IN ADVANCE PC******
39981000: system.cpu: build/ARM/cpu/atomiccgra/atomiccgra.cc,CGRA_advancePC,1759,PC:a4ef0
39981000: system.cpu: Passed Complete Drain().
39981000: system.cpu: Make latency status=1.
39981000: system.cpu: Inside status idle.
39981000: system.cpu: Exiting schedule events
39981000: system.cpu: We are here after Execution
39981500: system.cpu: Inside CGRA Execution else statement.
39981500: system.cpu: Inside CGRA_Execution block.
39981500: system.cpu: 
CALL IN NOW CGRA_Execution.
39981500: global: 
******** DB INPUT2 ReadAddress0************
39981500: global: 
IN READ REGFILE R0 = 0
39981500: global: R0: 0	R1: 5	R2: 33	R3: 0

*********** CGRA EXECUTE - PRINT C ****************

39981500: system.cpu: Ins: 4798398465, 11e01c001 @ PE 0
39981500: global: Predictor bit: 1	 Opcode: 1
39981500: global: 
Input1 = 1	Input2 = 0
39981500: global: 
******** LDI IN THIS PE 1************
39981500: global: 
************** WE *****************
39981500: global: 
WRITE: REG NUMBER: 3 dist: 0
39981500: global: R0: 0	R1: 5	R2: 33	R3: 1
39981500: global: 
WRITE: FPREG NUMBER: 3 dist: 0
39981500: global: FPR0: 0	FPR1: 5	FPR2: 33	FPR3: 1
39981500: global: Writing output 1 to register 3
39981500: global: Distance is: 0
39981500: system.cpu: Ins: 6306136064, 177e00000 @ PE 1
39981500: global: Predictor bit: 0	 Opcode: 7
39981500: global: CGRA: NOOP.Execute()
39981500: global: Distance is: 0
39981500: system.cpu: Ins: 6306136064, 177e00000 @ PE 2
39981500: global: Predictor bit: 0	 Opcode: 7
39981500: global: CGRA: NOOP.Execute()
39981500: global: Distance is: 0
39981500: system.cpu: Ins: 6306136064, 177e00000 @ PE 3
39981500: global: Predictor bit: 0	 Opcode: 7
39981500: global: CGRA: NOOP.Execute()
39981500: global: Distance is: 0
39981500: system.cpu: Ins: 6306136064, 177e00000 @ PE 4
39981500: global: Predictor bit: 0	 Opcode: 7
39981500: global: CGRA: NOOP.Execute()
39981500: global: Distance is: 0
39981500: system.cpu: Ins: 6306136064, 177e00000 @ PE 5
39981500: global: Predictor bit: 0	 Opcode: 7
39981500: global: CGRA: NOOP.Execute()
39981500: global: Distance is: 0
39981500: system.cpu: Ins: 6306136064, 177e00000 @ PE 6
39981500: global: Predictor bit: 0	 Opcode: 7
39981500: global: CGRA: NOOP.Execute()
39981500: global: Distance is: 0
39981500: system.cpu: Ins: 6306136064, 177e00000 @ PE 7
39981500: global: Predictor bit: 0	 Opcode: 7
39981500: global: CGRA: NOOP.Execute()
39981500: global: Distance is: 0
39981500: system.cpu: Ins: 6306136064, 177e00000 @ PE 8
39981500: global: Predictor bit: 0	 Opcode: 7
39981500: global: CGRA: NOOP.Execute()
39981500: global: Distance is: 0
39981500: system.cpu: Ins: 6306136064, 177e00000 @ PE 9
39981500: global: Predictor bit: 0	 Opcode: 7
39981500: global: CGRA: NOOP.Execute()
39981500: global: Distance is: 0
39981500: system.cpu: Ins: 6306136064, 177e00000 @ PE 10
39981500: global: Predictor bit: 0	 Opcode: 7
39981500: global: CGRA: NOOP.Execute()
39981500: global: Distance is: 0
39981500: system.cpu: Ins: 6306136064, 177e00000 @ PE 11
39981500: global: Predictor bit: 0	 Opcode: 7
39981500: global: CGRA: NOOP.Execute()
39981500: global: Distance is: 0
39981500: system.cpu: Ins: 6306136064, 177e00000 @ PE 12
39981500: global: Predictor bit: 0	 Opcode: 7
39981500: global: CGRA: NOOP.Execute()
39981500: global: Distance is: 0
39981500: system.cpu: Ins: 6306136064, 177e00000 @ PE 13
39981500: global: Predictor bit: 0	 Opcode: 7
39981500: global: CGRA: NOOP.Execute()
39981500: global: Distance is: 0
39981500: system.cpu: Ins: 6306136064, 177e00000 @ PE 14
39981500: global: Predictor bit: 0	 Opcode: 7
39981500: global: CGRA: NOOP.Execute()
39981500: global: Distance is: 0
39981500: system.cpu: Ins: 6306136064, 177e00000 @ PE 15
39981500: global: Predictor bit: 0	 Opcode: 7
39981500: global: CGRA: NOOP.Execute()
39981500: global: Distance is: 0

************* MEM READ *************
Row: 0 - address: 632384 - data: 10
39981500: system.cpu: CGRA advanceTime complete.
39981500: system.cpu: *******IN ADVANCE PC******
39981500: system.cpu: build/ARM/cpu/atomiccgra/atomiccgra.cc,CGRA_advancePC,1759,PC:a4f70
39981500: system.cpu: Passed Complete Drain().
39981500: system.cpu: Make latency status=1.
39981500: system.cpu: Inside status idle.
39981500: system.cpu: Exiting schedule events
39981500: system.cpu: We are here after Execution
39982000: system.cpu: Inside CGRA Execution else statement.
39982000: system.cpu: Inside CGRA_Execution block.
39982000: system.cpu: 
CALL IN NOW CGRA_Execution.
39982000: global: 
******** DB INPUT2 ReadAddress0************
39982000: global: 
IN READ REGFILE R0 = 0
39982000: global: R0: 0	R1: 5	R2: 33	R3: 1
39982000: global: 
******** DB INPUT1 ReadAddress0************
39982000: global: 
IN READ REGFILE R0 = 0
39982000: global: R0: 0	R1: 0	R2: 0	R3: 0
39982000: global: 
******** DB INPUT2 ReadAddress0************
39982000: global: 
IN READ REGFILE R0 = 0
39982000: global: R0: 0	R1: 0	R2: 0	R3: 0
39982000: global: 
******** DB INPUT1 ReadAddress0************
39982000: global: 
IN READ REGFILE R0 = 0
39982000: global: R0: 0	R1: 0	R2: 0	R3: 0
39982000: global: 
******** DB INPUT2 ReadAddress0************
39982000: global: 
IN READ REGFILE R0 = 0
39982000: global: R0: 0	R1: 0	R2: 0	R3: 0
39982000: global: 
******** DB INPUT1 ReadAddress0************
39982000: global: 
IN READ REGFILE R0 = 0
39982000: global: R0: 0	R1: 0	R2: 0	R3: 0
39982000: global: 
******** DB INPUT2 ReadAddress0************
39982000: global: 
IN READ REGFILE R0 = 0
39982000: global: R0: 0	R1: 0	R2: 0	R3: 0
39982000: global: 
******** DB INPUT1 ReadAddress0************
39982000: global: 
IN READ REGFILE R0 = 0
39982000: global: R0: 0	R1: 0	R2: 0	R3: 0
39982000: global: 
******** DB INPUT2 ReadAddress0************
39982000: global: 
IN READ REGFILE R0 = 0
39982000: global: R0: 0	R1: 0	R2: 0	R3: 0
39982000: global: 
******** DB INPUT1 ReadAddress0************
39982000: global: 
IN READ REGFILE R0 = 0
39982000: global: R0: 0	R1: 0	R2: 0	R3: 0
39982000: global: 
******** DB INPUT2 ReadAddress0************
39982000: global: 
IN READ REGFILE R0 = 0
39982000: global: R0: 0	R1: 0	R2: 0	R3: 0
39982000: global: 
******** DB INPUT1 ReadAddress0************
39982000: global: 
IN READ REGFILE R0 = 0
39982000: global: R0: 0	R1: 0	R2: 0	R3: 0
39982000: global: 
******** DB INPUT2 ReadAddress0************
39982000: global: 
IN READ REGFILE R0 = 0
39982000: global: R0: 0	R1: 0	R2: 0	R3: 0
39982000: global: 
******** DB INPUT1 ReadAddress0************
39982000: global: 
IN READ REGFILE R0 = 0
39982000: global: R0: 0	R1: 0	R2: 0	R3: 0
39982000: global: 
******** DB INPUT2 ReadAddress0************
39982000: global: 
IN READ REGFILE R0 = 0
39982000: global: R0: 0	R1: 0	R2: 0	R3: 0
39982000: global: 
******** DB INPUT1 ReadAddress0************
39982000: global: 
IN READ REGFILE R0 = 0
39982000: global: R0: 0	R1: 0	R2: 0	R3: 0
39982000: global: 
******** DB INPUT2 ReadAddress0************
39982000: global: 
IN READ REGFILE R0 = 0
39982000: global: R0: 0	R1: 0	R2: 0	R3: 0
39982000: global: 
******** DB INPUT1 ReadAddress0************
39982000: global: 
IN READ REGFILE R0 = 0
39982000: global: R0: 0	R1: 0	R2: 0	R3: 0
39982000: global: 
******** DB INPUT2 ReadAddress0************
39982000: global: 
IN READ REGFILE R0 = 0
39982000: global: R0: 0	R1: 0	R2: 0	R3: 0
39982000: global: 
******** DB INPUT1 ReadAddress0************
39982000: global: 
IN READ REGFILE R0 = 0
39982000: global: R0: 0	R1: 0	R2: 0	R3: 0
39982000: global: 
******** DB INPUT2 ReadAddress0************
39982000: global: 
IN READ REGFILE R0 = 0
39982000: global: R0: 0	R1: 0	R2: 0	R3: 0
39982000: global: 
******** DB INPUT1 ReadAddress0************
39982000: global: 
IN READ REGFILE R0 = 0
39982000: global: R0: 0	R1: 0	R2: 0	R3: 0
39982000: global: 
******** DB INPUT2 ReadAddress0************
39982000: global: 
IN READ REGFILE R0 = 0
39982000: global: R0: 0	R1: 0	R2: 0	R3: 0
39982000: global: 
******** DB INPUT1 ReadAddress0************
39982000: global: 
IN READ REGFILE R0 = 0
39982000: global: R0: 0	R1: 0	R2: 0	R3: 0
39982000: global: 
******** DB INPUT2 ReadAddress0************
39982000: global: 
IN READ REGFILE R0 = 0
39982000: global: R0: 0	R1: 0	R2: 0	R3: 0
39982000: global: 
******** DB INPUT1 ReadAddress0************
39982000: global: 
IN READ REGFILE R0 = 0
39982000: global: R0: 0	R1: 0	R2: 0	R3: 0
39982000: global: 
******** DB INPUT2 ReadAddress0************
39982000: global: 
IN READ REGFILE R0 = 0
39982000: global: R0: 0	R1: 0	R2: 0	R3: 0
39982000: global: 
******** DB INPUT1 ReadAddress0************
39982000: global: 
IN READ REGFILE R0 = 0
39982000: global: R0: 0	R1: 0	R2: 0	R3: 0
39982000: global: 
******** DB INPUT2 ReadAddress0************
39982000: global: 
IN READ REGFILE R0 = 0
39982000: global: R0: 0	R1: 0	R2: 0	R3: 0

*********** CGRA EXECUTE - PRINT C ****************

39982000: system.cpu: Ins: 5066833920, 12e01c000 @ PE 0
39982000: global: Predictor bit: 1	 Opcode: 2
39982000: global: 
Input1 = 0	Input2 = 0
39982000: global: 
******** LDMI IN THIS PE 0************
39982000: global: 
************** WE *****************
39982000: global: 
IN READ REGFILE R0 = 0
39982000: global: R0: 0	R1: 5	R2: 33	R3: 1
39982000: global: 
WRITE: REG NUMBER: 3 dist: 0
39982000: global: R0: 0	R1: 5	R2: 33	R3: 1
39982000: global: 
WRITE: FPREG NUMBER: 3 dist: 0
39982000: global: FPR0: 0	FPR1: 5	FPR2: 33	FPR3: 1
39982000: global: Writing output 1 to register 3
39982000: global: Distance is: 0
39982000: system.cpu: Ins: 6306136064, 177e00000 @ PE 1
39982000: global: Predictor bit: 0	 Opcode: 7
39982000: global: CGRA: NOOP.Execute()
39982000: global: Distance is: 0
39982000: system.cpu: Ins: 0, 0 @ PE 2
39982000: global: Predictor bit: 0	 Opcode: 0
39982000: global: 
Input1 = 0	Input2 = 0
39982000: global: 
******** SUM IN THIS PE 0************
39982000: global: Distance is: 0
39982000: system.cpu: Ins: 0, 0 @ PE 3
39982000: global: Predictor bit: 0	 Opcode: 0
39982000: global: 
Input1 = 0	Input2 = 0
39982000: global: 
******** SUM IN THIS PE 0************
39982000: global: Distance is: 0
39982000: system.cpu: Ins: 0, 0 @ PE 4
39982000: global: Predictor bit: 0	 Opcode: 0
39982000: global: 
Input1 = 0	Input2 = 0
39982000: global: 
******** SUM IN THIS PE 0************
39982000: global: Distance is: 0
39982000: system.cpu: Ins: 0, 0 @ PE 5
39982000: global: Predictor bit: 0	 Opcode: 0
39982000: global: 
Input1 = 0	Input2 = 0
39982000: global: 
******** SUM IN THIS PE 0************
39982000: global: Distance is: 0
39982000: system.cpu: Ins: 0, 0 @ PE 6
39982000: global: Predictor bit: 0	 Opcode: 0
39982000: global: 
Input1 = 0	Input2 = 0
39982000: global: 
******** SUM IN THIS PE 0************
39982000: global: Distance is: 0
39982000: system.cpu: Ins: 0, 0 @ PE 7
39982000: global: Predictor bit: 0	 Opcode: 0
39982000: global: 
Input1 = 0	Input2 = 0
39982000: global: 
******** SUM IN THIS PE 0************
39982000: global: Distance is: 0
39982000: system.cpu: Ins: 0, 0 @ PE 8
39982000: global: Predictor bit: 0	 Opcode: 0
39982000: global: 
Input1 = 0	Input2 = 0
39982000: global: 
******** SUM IN THIS PE 0************
39982000: global: Distance is: 0
39982000: system.cpu: Ins: 0, 0 @ PE 9
39982000: global: Predictor bit: 0	 Opcode: 0
39982000: global: 
Input1 = 0	Input2 = 0
39982000: global: 
******** SUM IN THIS PE 0************
39982000: global: Distance is: 0
39982000: system.cpu: Ins: 0, 0 @ PE 10
39982000: global: Predictor bit: 0	 Opcode: 0
39982000: global: 
Input1 = 0	Input2 = 0
39982000: global: 
******** SUM IN THIS PE 0************
39982000: global: Distance is: 0
39982000: system.cpu: Ins: 0, 0 @ PE 11
39982000: global: Predictor bit: 0	 Opcode: 0
39982000: global: 
Input1 = 0	Input2 = 0
39982000: global: 
******** SUM IN THIS PE 0************
39982000: global: Distance is: 0
39982000: system.cpu: Ins: 0, 0 @ PE 12
39982000: global: Predictor bit: 0	 Opcode: 0
39982000: global: 
Input1 = 0	Input2 = 0
39982000: global: 
******** SUM IN THIS PE 0************
39982000: global: Distance is: 0
39982000: system.cpu: Ins: 0, 0 @ PE 13
39982000: global: Predictor bit: 0	 Opcode: 0
39982000: global: 
Input1 = 0	Input2 = 0
39982000: global: 
******** SUM IN THIS PE 0************
39982000: global: Distance is: 0
39982000: system.cpu: Ins: 0, 0 @ PE 14
39982000: global: Predictor bit: 0	 Opcode: 0
39982000: global: 
Input1 = 0	Input2 = 0
39982000: global: 
******** SUM IN THIS PE 0************
39982000: global: Distance is: 0
39982000: system.cpu: Ins: 0, 0 @ PE 15
39982000: global: Predictor bit: 0	 Opcode: 0
39982000: global: 
Input1 = 0	Input2 = 0
39982000: global: 
******** SUM IN THIS PE 0************
39982000: global: Distance is: 0

************* MEM READ *************
Row: 0 - address: 632384 - data: 10
39982000: system.cpu: CGRA advanceTime complete.
39982000: system.cpu: *******IN ADVANCE PC******
39982000: system.cpu: build/ARM/cpu/atomiccgra/atomiccgra.cc,CGRA_advancePC,1759,PC:a4ff0
39982000: system.cpu: Passed Complete Drain().
39982000: system.cpu: Make latency status=1.
39982000: system.cpu: Inside status idle.
39982000: system.cpu: Exiting schedule events
39982000: system.cpu: We are here after Execution
[...]
40007500: system.cpu: Inside CGRA Execution else statement.
40007500: system.cpu: Inside CGRA_Execution block.
40007500: system.cpu: 
CALL IN NOW CGRA_Execution.
40007500: global: 
******** DB INPUT2 ReadAddress0************
40007500: global: 
IN READ REGFILE R0 = 10
40007500: global: R0: 10	R1: 632388	R2: 632388	R3: 1

*********** CGRA EXECUTE - PRINT C ****************

40007500: system.cpu: Ins: 7633633280, 1c7000000 @ PE 0
40007500: global: Predictor bit: 0	 Opcode: 12
40007500: global: 
Input1 = 9	Input2 = 10
40007500: global: 
******** EQUALS IN THIS PE 0************
40007500: global: 
COMPARE INSTRUCTION OUTPUT = 0
40007500: global: Distance is: 0
40007500: system.cpu: Ins: 4324327424, 101c00000 @ PE 1
40007500: global: Predictor bit: 0	 Opcode: 0
40007500: global: 
Input1 = 9	Input2 = 0
40007500: global: 
******** SUM IN THIS PE 9************
40007500: global: Distance is: 0
40007500: system.cpu: Ins: 5622472704, 14f202000 @ PE 2
40007500: global: Predictor bit: 1	 Opcode: 4
40007500: global: 
Input1 = 198	Input2 = 165	InputP = 0
40007500: global: 
******** Selection IN THIS PE 165************
40007500: global: Distance is: 0
40007500: system.cpu: Ins: 6306136064, 177e00000 @ PE 3
40007500: global: Predictor bit: 0	 Opcode: 7
40007500: global: CGRA: NOOP.Execute()
40007500: global: Distance is: 0
40007500: system.cpu: Ins: 6306136064, 177e00000 @ PE 4
40007500: global: Predictor bit: 0	 Opcode: 7
40007500: global: CGRA: NOOP.Execute()
40007500: global: Distance is: 0
40007500: system.cpu: Ins: 6306136064, 177e00000 @ PE 5
40007500: global: Predictor bit: 0	 Opcode: 7
40007500: global: CGRA: NOOP.Execute()
40007500: global: Distance is: 0
40007500: system.cpu: Ins: 6306136064, 177e00000 @ PE 6
40007500: global: Predictor bit: 0	 Opcode: 7
40007500: global: CGRA: NOOP.Execute()
40007500: global: Distance is: 0
40007500: system.cpu: Ins: 6306136064, 177e00000 @ PE 7
40007500: global: Predictor bit: 0	 Opcode: 7
40007500: global: CGRA: NOOP.Execute()
40007500: global: Distance is: 0
40007500: system.cpu: Ins: 6306136064, 177e00000 @ PE 8
40007500: global: Predictor bit: 0	 Opcode: 7
40007500: global: CGRA: NOOP.Execute()
40007500: global: Distance is: 0
40007500: system.cpu: Ins: 6306136064, 177e00000 @ PE 9
40007500: global: Predictor bit: 0	 Opcode: 7
40007500: global: CGRA: NOOP.Execute()
40007500: global: Distance is: 0
40007500: system.cpu: Ins: 6306136064, 177e00000 @ PE 10
40007500: global: Predictor bit: 0	 Opcode: 7
40007500: global: CGRA: NOOP.Execute()
40007500: global: Distance is: 0
40007500: system.cpu: Ins: 6306136064, 177e00000 @ PE 11
40007500: global: Predictor bit: 0	 Opcode: 7
40007500: global: CGRA: NOOP.Execute()
40007500: global: Distance is: 0
40007500: system.cpu: Ins: 6306136064, 177e00000 @ PE 12
40007500: global: Predictor bit: 0	 Opcode: 7
40007500: global: CGRA: NOOP.Execute()
40007500: global: Distance is: 0
40007500: system.cpu: Ins: 6306136064, 177e00000 @ PE 13
40007500: global: Predictor bit: 0	 Opcode: 7
40007500: global: CGRA: NOOP.Execute()
40007500: global: Distance is: 0
40007500: system.cpu: Ins: 6306136064, 177e00000 @ PE 14
40007500: global: Predictor bit: 0	 Opcode: 7
40007500: global: CGRA: NOOP.Execute()
40007500: global: Distance is: 0
40007500: system.cpu: Ins: 6306136064, 177e00000 @ PE 15
40007500: global: Predictor bit: 0	 Opcode: 7
40007500: global: CGRA: NOOP.Execute()
40007500: global: Distance is: 0

************* MEM READ *************
Row: 0 - address: 632384 - data: 10
40007500: system.cpu: CGRA advanceTime complete.
40007500: system.cpu: *******IN ADVANCE PC******
40007500: system.cpu: build/ARM/cpu/atomiccgra/atomiccgra.cc,CGRA_advancePC,1759,PC:a5ef8
40007500: system.cpu: Passed Complete Drain().
40007500: system.cpu: Make latency status=1.
40007500: system.cpu: Inside status idle.
40007500: system.cpu: Exiting schedule events
40007500: system.cpu: We are here after Execution
40008000: system.cpu: Inside CGRA Execution else statement.
40008000: system.cpu: Inside CGRA_Execution block.
40008000: system.cpu: 
CALL IN NOW CGRA_Execution.
40008000: global: 
IN READ REGFILE R0 = 10
40008000: global: R0: 10	R1: 632388	R2: 632388	R3: 1
40008000: global: 
IN READ REGFILE R0 = 0
40008000: global: R0: 0	R1: 0	R2: 0	R3: 0

*********** CGRA EXECUTE - PRINT C ****************

40008000: system.cpu: Ins: 4743757824, 11ac00000 @ PE 0
40008000: global: Predictor bit: 1	 Opcode: 1
40008000: global: 
Input1 = 9	Input2 = 0
40008000: global: 
******** LDI IN THIS PE 9************
40008000: global: Distance is: 0
40008000: system.cpu: Ins: 4743757824, 11ac00000 @ PE 1
40008000: global: Predictor bit: 1	 Opcode: 1
40008000: global: 
Input1 = 165	Input2 = 0
40008000: global: 
******** LDI IN THIS PE 165************
40008000: global: Distance is: 0
40008000: system.cpu: Ins: 6306136064, 177e00000 @ PE 2
40008000: global: Predictor bit: 0	 Opcode: 7
40008000: global: CGRA: NOOP.Execute()
40008000: global: Distance is: 0
40008000: system.cpu: Ins: 6306136064, 177e00000 @ PE 3
40008000: global: Predictor bit: 0	 Opcode: 7
40008000: global: CGRA: NOOP.Execute()
40008000: global: Distance is: 0
40008000: system.cpu: Ins: 6306136064, 177e00000 @ PE 4
40008000: global: Predictor bit: 0	 Opcode: 7
40008000: global: CGRA: NOOP.Execute()
40008000: global: Distance is: 0
40008000: system.cpu: Ins: 6306136064, 177e00000 @ PE 5
40008000: global: Predictor bit: 0	 Opcode: 7
40008000: global: CGRA: NOOP.Execute()
40008000: global: Distance is: 0
40008000: system.cpu: Ins: 6306136064, 177e00000 @ PE 6
40008000: global: Predictor bit: 0	 Opcode: 7
40008000: global: CGRA: NOOP.Execute()
40008000: global: Distance is: 0
40008000: system.cpu: Ins: 6306136064, 177e00000 @ PE 7
40008000: global: Predictor bit: 0	 Opcode: 7
40008000: global: CGRA: NOOP.Execute()
40008000: global: Distance is: 0
40008000: system.cpu: Ins: 6306136064, 177e00000 @ PE 8
40008000: global: Predictor bit: 0	 Opcode: 7
40008000: global: CGRA: NOOP.Execute()
40008000: global: Distance is: 0
40008000: system.cpu: Ins: 6306136064, 177e00000 @ PE 9
40008000: global: Predictor bit: 0	 Opcode: 7
40008000: global: CGRA: NOOP.Execute()
40008000: global: Distance is: 0
40008000: system.cpu: Ins: 6306136064, 177e00000 @ PE 10
40008000: global: Predictor bit: 0	 Opcode: 7
40008000: global: CGRA: NOOP.Execute()
40008000: global: Distance is: 0
40008000: system.cpu: Ins: 6306136064, 177e00000 @ PE 11
40008000: global: Predictor bit: 0	 Opcode: 7
40008000: global: CGRA: NOOP.Execute()
40008000: global: Distance is: 0
40008000: system.cpu: Ins: 6306136064, 177e00000 @ PE 12
40008000: global: Predictor bit: 0	 Opcode: 7
40008000: global: CGRA: NOOP.Execute()
40008000: global: Distance is: 0
40008000: system.cpu: Ins: 6306136064, 177e00000 @ PE 13
40008000: global: Predictor bit: 0	 Opcode: 7
40008000: global: CGRA: NOOP.Execute()
40008000: global: Distance is: 0
40008000: system.cpu: Ins: 6306136064, 177e00000 @ PE 14
40008000: global: Predictor bit: 0	 Opcode: 7
40008000: global: CGRA: NOOP.Execute()
40008000: global: Distance is: 0
40008000: system.cpu: Ins: 6306136064, 177e00000 @ PE 15
40008000: global: Predictor bit: 0	 Opcode: 7
40008000: global: CGRA: NOOP.Execute()
40008000: global: Distance is: 0

************* MEM READ *************
Row: 0 - address: 632384 - data: 10
40008000: system.cpu: CGRA advanceTime complete.
40008000: system.cpu: *******IN ADVANCE PC******
40008000: system.cpu: build/ARM/cpu/atomiccgra/atomiccgra.cc,CGRA_advancePC,1759,PC:a5f78
40008000: system.cpu: 
KERNEL->EPILOG
40008000: system.cpu: Passed Complete Drain().
40008000: system.cpu: Make latency status=1.
40008000: system.cpu: Inside status idle.
40008000: system.cpu: Exiting schedule events
40008000: system.cpu: We are here after Execution
40008500: system.cpu: Inside CGRA Execution else statement.
40008500: system.cpu: Inside CGRA_Execution block.
40008500: system.cpu: 
CALL IN NOW CGRA_Execution.

*********** CGRA EXECUTE - PRINT C ****************

40008500: system.cpu: Ins: 4424990721, 107c00001 @ PE 0
40008500: global: Predictor bit: 0	 Opcode: 0
40008500: global: 
Input1 = 9	Input2 = 1
40008500: global: 
******** SUM IN THIS PE 10************
40008500: global: Distance is: 0
40008500: system.cpu: Ins: 4424990720, 107c00000 @ PE 1
40008500: global: Predictor bit: 0	 Opcode: 0
40008500: global: 
Input1 = 165	Input2 = 0
40008500: global: 
******** SUM IN THIS PE 165************
40008500: global: Distance is: 0
40008500: system.cpu: Ins: 4324327457, 101c00021 @ PE 2
40008500: global: Predictor bit: 0	 Opcode: 0
40008500: global: 
Input1 = 165	Input2 = 33
40008500: global: 
******** SUM IN THIS PE 198************
40008500: global: Distance is: 0
40008500: system.cpu: Ins: 8367636485, 1f2c00005 @ PE 3
40008500: global: Predictor bit: 0	 Opcode: 15
40008500: global: 
Input1 = 9	Input2 = 5
40008500: global: 
******** Less Than IN THIS PE 0************
40008500: global: 
COMPARE INSTRUCTION OUTPUT = 0
40008500: global: Distance is: 0
40008500: system.cpu: Ins: 6306136064, 177e00000 @ PE 4
40008500: global: Predictor bit: 0	 Opcode: 7
40008500: global: CGRA: NOOP.Execute()
40008500: global: Distance is: 0
40008500: system.cpu: Ins: 6306136064, 177e00000 @ PE 5
40008500: global: Predictor bit: 0	 Opcode: 7
40008500: global: CGRA: NOOP.Execute()
40008500: global: Distance is: 0
40008500: system.cpu: Ins: 6306136064, 177e00000 @ PE 6
40008500: global: Predictor bit: 0	 Opcode: 7
40008500: global: CGRA: NOOP.Execute()
40008500: global: Distance is: 0
40008500: system.cpu: Ins: 6306136064, 177e00000 @ PE 7
40008500: global: Predictor bit: 0	 Opcode: 7
40008500: global: CGRA: NOOP.Execute()
40008500: global: Distance is: 0
40008500: system.cpu: Ins: 6306136064, 177e00000 @ PE 8
40008500: global: Predictor bit: 0	 Opcode: 7
40008500: global: CGRA: NOOP.Execute()
40008500: global: Distance is: 0
40008500: system.cpu: Ins: 6306136064, 177e00000 @ PE 9
40008500: global: Predictor bit: 0	 Opcode: 7
40008500: global: CGRA: NOOP.Execute()
40008500: global: Distance is: 0
40008500: system.cpu: Ins: 6306136064, 177e00000 @ PE 10
40008500: global: Predictor bit: 0	 Opcode: 7
40008500: global: CGRA: NOOP.Execute()
40008500: global: Distance is: 0
40008500: system.cpu: Ins: 6306136064, 177e00000 @ PE 11
40008500: global: Predictor bit: 0	 Opcode: 7
40008500: global: CGRA: NOOP.Execute()
40008500: global: Distance is: 0
40008500: system.cpu: Ins: 6306136064, 177e00000 @ PE 12
40008500: global: Predictor bit: 0	 Opcode: 7
40008500: global: CGRA: NOOP.Execute()
40008500: global: Distance is: 0
40008500: system.cpu: Ins: 6306136064, 177e00000 @ PE 13
40008500: global: Predictor bit: 0	 Opcode: 7
40008500: global: CGRA: NOOP.Execute()
40008500: global: Distance is: 0
40008500: system.cpu: Ins: 6306136064, 177e00000 @ PE 14
40008500: global: Predictor bit: 0	 Opcode: 7
40008500: global: CGRA: NOOP.Execute()
40008500: global: Distance is: 0
40008500: system.cpu: Ins: 6306136064, 177e00000 @ PE 15
40008500: global: Predictor bit: 0	 Opcode: 7
40008500: global: CGRA: NOOP.Execute()
40008500: global: Distance is: 0

************* MEM READ *************
Row: 0 - address: 632384 - data: 10
40008500: system.cpu: CGRA advanceTime complete.
40008500: system.cpu: *******IN ADVANCE PC******
40008500: system.cpu: build/ARM/cpu/atomiccgra/atomiccgra.cc,CGRA_advancePC,1759,PC:a4668
40008500: system.cpu: Passed Complete Drain().
40008500: system.cpu: Make latency status=1.
40008500: system.cpu: Inside status idle.
40008500: system.cpu: Exiting schedule events
40008500: system.cpu: We are here after Execution
40009000: system.cpu: Inside CGRA Execution else statement.
40009000: system.cpu: Inside CGRA_Execution block.
40009000: system.cpu: 
CALL IN NOW CGRA_Execution.
40009000: global: 
******** DB INPUT2 ReadAddress0************
40009000: global: 
IN READ REGFILE R0 = 10
40009000: global: R0: 10	R1: 632388	R2: 632388	R3: 1

*********** CGRA EXECUTE - PRINT C ****************

40009000: system.cpu: Ins: 7633633280, 1c7000000 @ PE 0
40009000: global: Predictor bit: 0	 Opcode: 12
40009000: global: 
Input1 = 10	Input2 = 10
40009000: global: 
******** EQUALS IN THIS PE 1************
40009000: global: 
COMPARE INSTRUCTION OUTPUT = 1
40009000: global: Distance is: 0
40009000: system.cpu: Ins: 4324327424, 101c00000 @ PE 1
40009000: global: Predictor bit: 0	 Opcode: 0
40009000: global: 
Input1 = 10	Input2 = 0
40009000: global: 
******** SUM IN THIS PE 10************
40009000: global: Distance is: 0
40009000: system.cpu: Ins: 5622472704, 14f202000 @ PE 2
40009000: global: Predictor bit: 1	 Opcode: 4
40009000: global: 
Input1 = 198	Input2 = 165	InputP = 0
40009000: global: 
******** Selection IN THIS PE 165************
40009000: global: Distance is: 0
40009000: system.cpu: Ins: 6306136064, 177e00000 @ PE 3
40009000: global: Predictor bit: 0	 Opcode: 7
40009000: global: CGRA: NOOP.Execute()
40009000: global: Distance is: 0
40009000: system.cpu: Ins: 6306136064, 177e00000 @ PE 4
40009000: global: Predictor bit: 0	 Opcode: 7
40009000: global: CGRA: NOOP.Execute()
40009000: global: Distance is: 0
40009000: system.cpu: Ins: 6306136064, 177e00000 @ PE 5
40009000: global: Predictor bit: 0	 Opcode: 7
40009000: global: CGRA: NOOP.Execute()
40009000: global: Distance is: 0
40009000: system.cpu: Ins: 6306136064, 177e00000 @ PE 6
40009000: global: Predictor bit: 0	 Opcode: 7
40009000: global: CGRA: NOOP.Execute()
40009000: global: Distance is: 0
40009000: system.cpu: Ins: 6306136064, 177e00000 @ PE 7
40009000: global: Predictor bit: 0	 Opcode: 7
40009000: global: CGRA: NOOP.Execute()
40009000: global: Distance is: 0
40009000: system.cpu: Ins: 6306136064, 177e00000 @ PE 8
40009000: global: Predictor bit: 0	 Opcode: 7
40009000: global: CGRA: NOOP.Execute()
40009000: global: Distance is: 0
40009000: system.cpu: Ins: 6306136064, 177e00000 @ PE 9
40009000: global: Predictor bit: 0	 Opcode: 7
40009000: global: CGRA: NOOP.Execute()
40009000: global: Distance is: 0
40009000: system.cpu: Ins: 6306136064, 177e00000 @ PE 10
40009000: global: Predictor bit: 0	 Opcode: 7
40009000: global: CGRA: NOOP.Execute()
40009000: global: Distance is: 0
40009000: system.cpu: Ins: 6306136064, 177e00000 @ PE 11
40009000: global: Predictor bit: 0	 Opcode: 7
40009000: global: CGRA: NOOP.Execute()
40009000: global: Distance is: 0
40009000: system.cpu: Ins: 6306136064, 177e00000 @ PE 12
40009000: global: Predictor bit: 0	 Opcode: 7
40009000: global: CGRA: NOOP.Execute()
40009000: global: Distance is: 0
40009000: system.cpu: Ins: 6306136064, 177e00000 @ PE 13
40009000: global: Predictor bit: 0	 Opcode: 7
40009000: global: CGRA: NOOP.Execute()
40009000: global: Distance is: 0
40009000: system.cpu: Ins: 6306136064, 177e00000 @ PE 14
40009000: global: Predictor bit: 0	 Opcode: 7
40009000: global: CGRA: NOOP.Execute()
40009000: global: Distance is: 0
40009000: system.cpu: Ins: 6306136064, 177e00000 @ PE 15
40009000: global: Predictor bit: 0	 Opcode: 7
40009000: global: CGRA: NOOP.Execute()
40009000: global: Distance is: 0

************* MEM READ *************
Row: 0 - address: 632384 - data: 10
40009000: system.cpu: CGRA advanceTime complete.
40009000: system.cpu: *******IN ADVANCE PC******
40009000: system.cpu: build/ARM/cpu/atomiccgra/atomiccgra.cc,CGRA_advancePC,1759,PC:a46e8
40009000: system.cpu: Passed Complete Drain().
40009000: system.cpu: Make latency status=1.
40009000: system.cpu: Inside status idle.
40009000: system.cpu: Exiting schedule events
40009000: system.cpu: We are here after Execution
40009500: system.cpu: Inside CGRA Execution else statement.
40009500: system.cpu: Inside CGRA_Execution block.
40009500: system.cpu: 
CALL IN NOW CGRA_Execution.
40009500: global: 
******** DB INPUT1 ReadAddress2************
40009500: global: 
IN READ REGFILE R0 = 10
40009500: global: R0: 10	R1: 632388	R2: 632388	R3: 1

*********** CGRA EXECUTE - PRINT C ****************

40009500: system.cpu: Ins: 6053437444, 168d02004 @ PE 0
40009500: global: Predictor bit: 1	 Opcode: 6
40009500: global: 
Input1 = 632388	Input2 = 4
40009500: global: 
******** ADDRESS GENERATED IN THIS PE 632388************
40009500: global: 
*********Setting Address 9a644 ******
40009500: global: Distance is: 0
40009500: system.cpu: Ins: 6306136064, 177e00000 @ PE 1
40009500: global: Predictor bit: 0	 Opcode: 7
40009500: global: CGRA: NOOP.Execute()
40009500: global: Distance is: 0
40009500: system.cpu: Ins: 4424994816, 107c01000 @ PE 2
40009500: global: Predictor bit: 0	 Opcode: 0
40009500: global: 
Input1 = 165	Input2 = 0
40009500: global: 
******** SUM IN THIS PE 165************
40009500: global: 
******** DB Output 165************
40009500: global: Distance is: 0
40009500: system.cpu: Ins: 6306136064, 177e00000 @ PE 3
40009500: global: Predictor bit: 0	 Opcode: 7
40009500: global: CGRA: NOOP.Execute()
40009500: global: Distance is: 0
40009500: system.cpu: Ins: 6306136064, 177e00000 @ PE 4
40009500: global: Predictor bit: 0	 Opcode: 7
40009500: global: CGRA: NOOP.Execute()
40009500: global: Distance is: 0
40009500: system.cpu: Ins: 6306136064, 177e00000 @ PE 5
40009500: global: Predictor bit: 0	 Opcode: 7
40009500: global: CGRA: NOOP.Execute()
40009500: global: Distance is: 0
40009500: system.cpu: Ins: 6306136064, 177e00000 @ PE 6
40009500: global: Predictor bit: 0	 Opcode: 7
40009500: global: CGRA: NOOP.Execute()
40009500: global: Distance is: 0
40009500: system.cpu: Ins: 6306136064, 177e00000 @ PE 7
40009500: global: Predictor bit: 0	 Opcode: 7
40009500: global: CGRA: NOOP.Execute()
40009500: global: Distance is: 0
40009500: system.cpu: Ins: 6306136064, 177e00000 @ PE 8
40009500: global: Predictor bit: 0	 Opcode: 7
40009500: global: CGRA: NOOP.Execute()
40009500: global: Distance is: 0
40009500: system.cpu: Ins: 6306136064, 177e00000 @ PE 9
40009500: global: Predictor bit: 0	 Opcode: 7
40009500: global: CGRA: NOOP.Execute()
40009500: global: Distance is: 0
40009500: system.cpu: Ins: 6306136064, 177e00000 @ PE 10
40009500: global: Predictor bit: 0	 Opcode: 7
40009500: global: CGRA: NOOP.Execute()
40009500: global: Distance is: 0
40009500: system.cpu: Ins: 6306136064, 177e00000 @ PE 11
40009500: global: Predictor bit: 0	 Opcode: 7
40009500: global: CGRA: NOOP.Execute()
40009500: global: Distance is: 0
40009500: system.cpu: Ins: 6306136064, 177e00000 @ PE 12
40009500: global: Predictor bit: 0	 Opcode: 7
40009500: global: CGRA: NOOP.Execute()
40009500: global: Distance is: 0
40009500: system.cpu: Ins: 6306136064, 177e00000 @ PE 13
40009500: global: Predictor bit: 0	 Opcode: 7
40009500: global: CGRA: NOOP.Execute()
40009500: global: Distance is: 0
40009500: system.cpu: Ins: 6306136064, 177e00000 @ PE 14
40009500: global: Predictor bit: 0	 Opcode: 7
40009500: global: CGRA: NOOP.Execute()
40009500: global: Distance is: 0
40009500: system.cpu: Ins: 6306136064, 177e00000 @ PE 15
40009500: global: Predictor bit: 0	 Opcode: 7
40009500: global: CGRA: NOOP.Execute()
40009500: global: Distance is: 0
40009500: system.cpu: In Memwrite with membus: 1
40009500: system.cpu: In writing INT 165	 to address:9a644	 -- &Data: 0x56414ce58620	 and uint: 
40009500: system.cpu: CGRA advanceTime complete.
40009500: system.cpu: *******IN ADVANCE PC******
40009500: system.cpu: build/ARM/cpu/atomiccgra/atomiccgra.cc,CGRA_advancePC,1759,PC:a4768
40009500: system.cpu: Passed Complete Drain().
40009500: system.cpu: Make latency status=1.
40009500: system.cpu: Inside status idle.
40009500: system.cpu: Exiting schedule events
40009500: system.cpu: We are here after Execution
40010000: system.cpu: Inside CGRA Execution else statement.
40010000: system.cpu: ************************PREPARING TO MOVE TO CPU************
40010000: system.cpu: newPC=673640, II=3, EPILog=3, Prolog=45, Len=0
40010000: system.cpu: **********************CGRA Execution is over**********************
40010000: system.cpu: ******REG R11= 16*********
40010000: system.cpu: AFTER COMPLETETION PC: 10e08
iterations:10	, c:165, result:10
Exiting @ tick 41526000 because exiting with last active thread context
