Global frequency set at 1000000000000 ticks per second
warn: DRAM device capacity (8192 Mbytes) does not match the address range assigned (512 Mbytes)
      0: system.cpu: initializing CGRA Dcache ports
      0: system.cpu: Setting Up CGRA
      0: system.cpu: CGRA instantiated
0: system.remote_gdb: listening for remote gdb on port 7000
gem5 Simulator System.  http://gem5.org
gem5 is copyrighted software; use the --copyright option for details.

gem5 version 20.1.0.4
gem5 compiled Jun 14 2021 23:03:00
gem5 started Jun 14 2021 23:03:48
gem5 executing on en4181851l, pid 937537
command line: /home/local/ASUAD/quoclon1/CCF_INS/ins3/gem5/build/ARM/gem5.opt --debug-flags=CGRA,CGRA_Execute,CGRA_Detailed /home/local/ASUAD/quoclon1/CCF_INS/ins3/gem5/configs/example/se_Vinh.py -n 1 --cpu-type CGRA4x4R4torus -c ./add_small -o 10

**** REAL SIMULATION ****
warn: membus.slave is deprecated. `slave` is now called `cpu_side_ports`
warn: membus.slave is deprecated. `slave` is now called `cpu_side_ports`
warn: membus.slave is deprecated. `slave` is now called `cpu_side_ports`
warn: membus.slave is deprecated. `slave` is now called `cpu_side_ports`
warn: membus.slave is deprecated. `slave` is now called `cpu_side_ports`
warn: membus.master is deprecated. `master` is now called `mem_side_ports`
warn: No dot file generated. Please install pydot to generate the dot file and pdf.
info: Entering event queue @ 0.  Starting simulation...
info: Increasing stack size by one page.
warn: ignoring syscall mprotect(...)
createCGRA
checkTotalLoops
from cgra.c Initialize Parameters

**********EPISIZE 48*********

**********PROSIZE 720*********

**********KERNSIZE 48*********

******SIZE OF UNSIGNED LONG4*****

******SIZE OF UNSIGNED LONG LONG8*****

*******************before while loop**************

************XDIM and YDim are 4, 4
Loop Count: -2
From FILE: PROLOGPC= a47f0, EPILOGPC=a4668,  KernelPC=a5e78
Main thread calling CGRA thread...


accelerateOnCGRA
configureCGRA

loopno = 1
Core will execute loop 1 on CGRA


runOnCGRA
39954500: system.cpu: ************************Setting UP the CGRA************
39954500: system.cpu: Inside Setup_CGRA_Execution
39954500: system.cpu: CGRA: OLD PC: 10e08
39954500: system.cpu: Loop count is 8
39954500: system.cpu: Epilog Length is 3
39954500: system.cpu: LiveVar_St_Epilog Length is 1
39954500: system.cpu: II is 3
39954500: system.cpu: Epilog count is  0
39954500: system.cpu: Prolog count is  1
39954500: system.cpu: Kernel Counter is  8
39954500: system.cpu: Prolog PC is a47f0
,39954500: system.cpu: Kernel PC is a5e78
39954500: system.cpu: Epilog PC is a4668
39954500: system.cpu: CGRA PARAMETERS: PROLOG= 45, EPILOG=3, II=3, KernelCounter=8
39954500: system.cpu: CGRA PARAMETERS: PROLOG= 45, EPILOG=3, II=3, KernelCounter=8
39954500: system.cpu: CGRA PARAMETERS: PROLOGPC= a47f0, EPILOGPC=a4668,  KernelPC=a5e78
39954500: system.cpu: CGRA PARAMETERS: PROLOGPC= a47f0, EPILOGPC=a4668,  KernelPC=a5e78
39954500: system.cpu: CGRA PC : a47f0
39954500: system.cpu: **********************CGRA Execution is started**************************** 
39954500: system.cpu: 
Executing 1 CGRA Cycle.
39954500: system.cpu: 
Exiting 1 CGRA Cycle.
39955000: system.cpu: Inside CGRA Execution else statement.
39955000: system.cpu: Inside CGRA_Execution block.
39955000: system.cpu: 
CALL IN NOW CGRA_Execution.
39955000: global: 
******** DB INPUT2 ReadAddress0************
39955000: global: 
IN READ REGFILE R0 = 0
39955000: global: R0: 0	R1: 0	R2: 0	R3: 0
39955000: global: 
******** DB INPUT2 ReadAddress0************
39955000: global: 
IN READ REGFILE R0 = 0
39955000: global: R0: 0	R1: 0	R2: 0	R3: 0
39955000: global: 
******** DB INPUT2 ReadAddress0************
39955000: global: 
IN READ REGFILE R0 = 0
39955000: global: R0: 0	R1: 0	R2: 0	R3: 0
39955000: global: 
******** DB INPUT2 ReadAddress0************
39955000: global: 
IN READ REGFILE R0 = 0
39955000: global: R0: 0	R1: 0	R2: 0	R3: 0
39955000: global: 
******** DB INPUT2 ReadAddress0************
39955000: global: 
IN READ REGFILE R0 = 0
39955000: global: R0: 0	R1: 0	R2: 0	R3: 0
39955000: global: 
******** DB INPUT2 ReadAddress0************
39955000: global: 
IN READ REGFILE R0 = 0
39955000: global: R0: 0	R1: 0	R2: 0	R3: 0
39955000: global: 
******** DB INPUT2 ReadAddress0************
39955000: global: 
IN READ REGFILE R0 = 0
39955000: global: R0: 0	R1: 0	R2: 0	R3: 0
39955000: global: 
******** DB INPUT2 ReadAddress0************
39955000: global: 
IN READ REGFILE R0 = 0
39955000: global: R0: 0	R1: 0	R2: 0	R3: 0
39955000: global: 
******** DB INPUT2 ReadAddress0************
39955000: global: 
IN READ REGFILE R0 = 0
39955000: global: R0: 0	R1: 0	R2: 0	R3: 0
39955000: global: 
******** DB INPUT2 ReadAddress0************
39955000: global: 
IN READ REGFILE R0 = 0
39955000: global: R0: 0	R1: 0	R2: 0	R3: 0
39955000: global: 
******** DB INPUT2 ReadAddress0************
39955000: global: 
IN READ REGFILE R0 = 0
39955000: global: R0: 0	R1: 0	R2: 0	R3: 0
39955000: global: 
******** DB INPUT2 ReadAddress0************
39955000: global: 
IN READ REGFILE R0 = 0
39955000: global: R0: 0	R1: 0	R2: 0	R3: 0
39955000: global: 
******** DB INPUT2 ReadAddress0************
39955000: global: 
IN READ REGFILE R0 = 0
39955000: global: R0: 0	R1: 0	R2: 0	R3: 0
39955000: global: 
******** DB INPUT2 ReadAddress0************
39955000: global: 
IN READ REGFILE R0 = 0
39955000: global: R0: 0	R1: 0	R2: 0	R3: 0
39955000: global: 
******** DB INPUT2 ReadAddress0************
39955000: global: 
IN READ REGFILE R0 = 0
39955000: global: R0: 0	R1: 0	R2: 0	R3: 0
39955000: global: 
******** DB INPUT2 ReadAddress0************
39955000: global: 
IN READ REGFILE R0 = 0
39955000: global: R0: 0	R1: 0	R2: 0	R3: 0

*********** CGRA EXECUTE - PRINT C ****************

39955000: system.cpu: Ins: 4529864704, 10e004000 @ PE 0
39955000: global: Predictor bit: 1	 Opcode: 0
39955000: global: 
Input1 = 0	Input2 = 0
39955000: global: 
******** Setting Configuration as 0************
39955000: global: 
************** WE *****************
39955000: global: Distance is: 0
39955000: system.cpu: Ins: 4529864704, 10e004000 @ PE 1
39955000: global: Predictor bit: 1	 Opcode: 0
39955000: global: 
Input1 = 0	Input2 = 0
39955000: global: 
******** Setting Configuration as 0************
39955000: global: 
************** WE *****************
39955000: global: Distance is: 0
39955000: system.cpu: Ins: 4529864704, 10e004000 @ PE 2
39955000: global: Predictor bit: 1	 Opcode: 0
39955000: global: 
Input1 = 0	Input2 = 0
39955000: global: 
******** Setting Configuration as 0************
39955000: global: 
************** WE *****************
39955000: global: Distance is: 0
39955000: system.cpu: Ins: 4529864704, 10e004000 @ PE 3
39955000: global: Predictor bit: 1	 Opcode: 0
39955000: global: 
Input1 = 0	Input2 = 0
39955000: global: 
******** Setting Configuration as 0************
39955000: global: 
************** WE *****************
39955000: global: Distance is: 0
39955000: system.cpu: Ins: 4529864704, 10e004000 @ PE 4
39955000: global: Predictor bit: 1	 Opcode: 0
39955000: global: 
Input1 = 0	Input2 = 0
39955000: global: 
******** Setting Configuration as 0************
39955000: global: 
************** WE *****************
39955000: global: Distance is: 0
39955000: system.cpu: Ins: 4529864704, 10e004000 @ PE 5
39955000: global: Predictor bit: 1	 Opcode: 0
39955000: global: 
Input1 = 0	Input2 = 0
39955000: global: 
******** Setting Configuration as 0************
39955000: global: 
************** WE *****************
39955000: global: Distance is: 0
39955000: system.cpu: Ins: 4529864704, 10e004000 @ PE 6
39955000: global: Predictor bit: 1	 Opcode: 0
39955000: global: 
Input1 = 0	Input2 = 0
39955000: global: 
******** Setting Configuration as 0************
39955000: global: 
************** WE *****************
39955000: global: Distance is: 0
39955000: system.cpu: Ins: 4529864704, 10e004000 @ PE 7
39955000: global: Predictor bit: 1	 Opcode: 0
39955000: global: 
Input1 = 0	Input2 = 0
39955000: global: 
******** Setting Configuration as 0************
39955000: global: 
************** WE *****************
39955000: global: Distance is: 0
39955000: system.cpu: Ins: 4529864704, 10e004000 @ PE 8
39955000: global: Predictor bit: 1	 Opcode: 0
39955000: global: 
Input1 = 0	Input2 = 0
39955000: global: 
******** Setting Configuration as 0************
39955000: global: 
************** WE *****************
39955000: global: Distance is: 0
39955000: system.cpu: Ins: 4529864704, 10e004000 @ PE 9
39955000: global: Predictor bit: 1	 Opcode: 0
39955000: global: 
Input1 = 0	Input2 = 0
39955000: global: 
******** Setting Configuration as 0************
39955000: global: 
************** WE *****************
39955000: global: Distance is: 0
39955000: system.cpu: Ins: 4529864704, 10e004000 @ PE 10
39955000: global: Predictor bit: 1	 Opcode: 0
39955000: global: 
Input1 = 0	Input2 = 0
39955000: global: 
******** Setting Configuration as 0************
39955000: global: 
************** WE *****************
39955000: global: Distance is: 0
39955000: system.cpu: Ins: 4529864704, 10e004000 @ PE 11
39955000: global: Predictor bit: 1	 Opcode: 0
39955000: global: 
Input1 = 0	Input2 = 0
39955000: global: 
******** Setting Configuration as 0************
39955000: global: 
************** WE *****************
39955000: global: Distance is: 0
39955000: system.cpu: Ins: 4529864704, 10e004000 @ PE 12
39955000: global: Predictor bit: 1	 Opcode: 0
39955000: global: 
Input1 = 0	Input2 = 0
39955000: global: 
******** Setting Configuration as 0************
39955000: global: 
************** WE *****************
39955000: global: Distance is: 0
39955000: system.cpu: Ins: 4529864704, 10e004000 @ PE 13
39955000: global: Predictor bit: 1	 Opcode: 0
39955000: global: 
Input1 = 0	Input2 = 0
39955000: global: 
******** Setting Configuration as 0************
39955000: global: 
************** WE *****************
39955000: global: Distance is: 0
39955000: system.cpu: Ins: 4529864704, 10e004000 @ PE 14
39955000: global: Predictor bit: 1	 Opcode: 0
39955000: global: 
Input1 = 0	Input2 = 0
39955000: global: 
******** Setting Configuration as 0************
39955000: global: 
************** WE *****************
39955000: global: Distance is: 0
39955000: system.cpu: Ins: 4529864704, 10e004000 @ PE 15
39955000: global: Predictor bit: 1	 Opcode: 0
39955000: global: 
Input1 = 0	Input2 = 0
39955000: global: 
******** Setting Configuration as 0************
39955000: global: 
************** WE *****************
39955000: global: Distance is: 0
39955000: system.cpu: CGRA advanceTime complete.
39955000: system.cpu: *******IN ADVANCE PC******
39955000: system.cpu: build/ARM/cpu/atomiccgra/atomiccgra.cc,CGRA_advancePC,1763,PC:a47f0
39955000: system.cpu: Passed Complete Drain().
39955000: system.cpu: Make latency status=1.
39955000: system.cpu: Inside status idle.
39955000: system.cpu: Exiting schedule events
39955000: system.cpu: We are here after Execution
39955500: system.cpu: Inside CGRA Execution else statement.
39955500: system.cpu: Inside CGRA_Execution block.
39955500: system.cpu: 
CALL IN NOW CGRA_Execution.
39955500: global: 
******** DB INPUT2 ReadAddress0************
39955500: global: 
IN READ REGFILE R0 = 0
39955500: global: R0: 0	R1: 0	R2: 0	R3: 0

*********** CGRA EXECUTE - PRINT C ****************

39955500: system.cpu: Ins: 4798301760, 11e004640 @ PE 0
39955500: global: Predictor bit: 1	 Opcode: 1
39955500: global: 
Input1 = 1600	Input2 = 0
39955500: global: 
******** LDI IN THIS PE 1600************
39955500: global: 
************** WE *****************
39955500: global: 
WRITE: REG NUMBER: 0 dist: 0
39955500: global: R0: 1600	R1: 0	R2: 0	R3: 0
39955500: global: 
WRITE: FPREG NUMBER: 0 dist: 0
39955500: global: FPR0: 1600	FPR1: 0	FPR2: 0	FPR3: 0
39955500: global: Writing output 1600 to register 0
39955500: global: Distance is: 0
39955500: system.cpu: Ins: 6306136064, 177e00000 @ PE 1
39955500: global: Predictor bit: 0	 Opcode: 7
39955500: global: CGRA: NOOP.Execute()
39955500: global: Distance is: 0
39955500: system.cpu: Ins: 6306136064, 177e00000 @ PE 2
39955500: global: Predictor bit: 0	 Opcode: 7
39955500: global: CGRA: NOOP.Execute()
39955500: global: Distance is: 0
39955500: system.cpu: Ins: 6306136064, 177e00000 @ PE 3
39955500: global: Predictor bit: 0	 Opcode: 7
39955500: global: CGRA: NOOP.Execute()
39955500: global: Distance is: 0
39955500: system.cpu: Ins: 6306136064, 177e00000 @ PE 4
39955500: global: Predictor bit: 0	 Opcode: 7
39955500: global: CGRA: NOOP.Execute()
39955500: global: Distance is: 0
39955500: system.cpu: Ins: 6306136064, 177e00000 @ PE 5
39955500: global: Predictor bit: 0	 Opcode: 7
39955500: global: CGRA: NOOP.Execute()
39955500: global: Distance is: 0
39955500: system.cpu: Ins: 6306136064, 177e00000 @ PE 6
39955500: global: Predictor bit: 0	 Opcode: 7
39955500: global: CGRA: NOOP.Execute()
39955500: global: Distance is: 0
39955500: system.cpu: Ins: 6306136064, 177e00000 @ PE 7
39955500: global: Predictor bit: 0	 Opcode: 7
39955500: global: CGRA: NOOP.Execute()
39955500: global: Distance is: 0
39955500: system.cpu: Ins: 6306136064, 177e00000 @ PE 8
39955500: global: Predictor bit: 0	 Opcode: 7
39955500: global: CGRA: NOOP.Execute()
39955500: global: Distance is: 0
39955500: system.cpu: Ins: 6306136064, 177e00000 @ PE 9
39955500: global: Predictor bit: 0	 Opcode: 7
39955500: global: CGRA: NOOP.Execute()
39955500: global: Distance is: 0
39955500: system.cpu: Ins: 6306136064, 177e00000 @ PE 10
39955500: global: Predictor bit: 0	 Opcode: 7
39955500: global: CGRA: NOOP.Execute()
39955500: global: Distance is: 0
39955500: system.cpu: Ins: 6306136064, 177e00000 @ PE 11
39955500: global: Predictor bit: 0	 Opcode: 7
39955500: global: CGRA: NOOP.Execute()
39955500: global: Distance is: 0
39955500: system.cpu: Ins: 6306136064, 177e00000 @ PE 12
39955500: global: Predictor bit: 0	 Opcode: 7
39955500: global: CGRA: NOOP.Execute()
39955500: global: Distance is: 0
39955500: system.cpu: Ins: 6306136064, 177e00000 @ PE 13
39955500: global: Predictor bit: 0	 Opcode: 7
39955500: global: CGRA: NOOP.Execute()
39955500: global: Distance is: 0
39955500: system.cpu: Ins: 6306136064, 177e00000 @ PE 14
39955500: global: Predictor bit: 0	 Opcode: 7
39955500: global: CGRA: NOOP.Execute()
39955500: global: Distance is: 0
39955500: system.cpu: Ins: 6306136064, 177e00000 @ PE 15
39955500: global: Predictor bit: 0	 Opcode: 7
39955500: global: CGRA: NOOP.Execute()
39955500: global: Distance is: 0
39955500: system.cpu: CGRA advanceTime complete.
39955500: system.cpu: *******IN ADVANCE PC******
39955500: system.cpu: build/ARM/cpu/atomiccgra/atomiccgra.cc,CGRA_advancePC,1763,PC:a4870
39955500: system.cpu: Passed Complete Drain().
39955500: system.cpu: Make latency status=1.
39955500: system.cpu: Inside status idle.
39955500: system.cpu: Exiting schedule events
39955500: system.cpu: We are here after Execution
39956000: system.cpu: Inside CGRA Execution else statement.
39956000: system.cpu: Inside CGRA_Execution block.
39956000: system.cpu: 
CALL IN NOW CGRA_Execution.
39956000: global: 
******** DB INPUT2 ReadAddress0************
39956000: global: 
IN READ REGFILE R0 = 1600
39956000: global: R0: 1600	R1: 0	R2: 0	R3: 0

*********** CGRA EXECUTE - PRINT C ****************

39956000: system.cpu: Ins: 5066735770, 12e00409a @ PE 0
39956000: global: Predictor bit: 1	 Opcode: 2
39956000: global: 
Input1 = 154	Input2 = 1600
39956000: global: 
******** LDMI IN THIS PE 154************
39956000: global: 
************** WE *****************
39956000: global: 
IN READ REGFILE R0 = 1600
39956000: global: R0: 1600	R1: 0	R2: 0	R3: 0
39956000: global: 
WRITE: REG NUMBER: 0 dist: 0
39956000: global: R0: 632384	R1: 0	R2: 0	R3: 0
39956000: global: 
WRITE: FPREG NUMBER: 0 dist: 0
39956000: global: FPR0: 632384	FPR1: 0	FPR2: 0	FPR3: 0
39956000: global: Writing output 632384 to register 0
39956000: global: Distance is: 0
39956000: system.cpu: Ins: 6306136064, 177e00000 @ PE 1
39956000: global: Predictor bit: 0	 Opcode: 7
39956000: global: CGRA: NOOP.Execute()
39956000: global: Distance is: 0
39956000: system.cpu: Ins: 6306136064, 177e00000 @ PE 2
39956000: global: Predictor bit: 0	 Opcode: 7
39956000: global: CGRA: NOOP.Execute()
39956000: global: Distance is: 0
39956000: system.cpu: Ins: 6306136064, 177e00000 @ PE 3
39956000: global: Predictor bit: 0	 Opcode: 7
39956000: global: CGRA: NOOP.Execute()
39956000: global: Distance is: 0
39956000: system.cpu: Ins: 6306136064, 177e00000 @ PE 4
39956000: global: Predictor bit: 0	 Opcode: 7
39956000: global: CGRA: NOOP.Execute()
39956000: global: Distance is: 0
39956000: system.cpu: Ins: 6306136064, 177e00000 @ PE 5
39956000: global: Predictor bit: 0	 Opcode: 7
39956000: global: CGRA: NOOP.Execute()
39956000: global: Distance is: 0
39956000: system.cpu: Ins: 6306136064, 177e00000 @ PE 6
39956000: global: Predictor bit: 0	 Opcode: 7
39956000: global: CGRA: NOOP.Execute()
39956000: global: Distance is: 0
39956000: system.cpu: Ins: 6306136064, 177e00000 @ PE 7
39956000: global: Predictor bit: 0	 Opcode: 7
39956000: global: CGRA: NOOP.Execute()
39956000: global: Distance is: 0
39956000: system.cpu: Ins: 6306136064, 177e00000 @ PE 8
39956000: global: Predictor bit: 0	 Opcode: 7
39956000: global: CGRA: NOOP.Execute()
39956000: global: Distance is: 0
39956000: system.cpu: Ins: 6306136064, 177e00000 @ PE 9
39956000: global: Predictor bit: 0	 Opcode: 7
39956000: global: CGRA: NOOP.Execute()
39956000: global: Distance is: 0
39956000: system.cpu: Ins: 6306136064, 177e00000 @ PE 10
39956000: global: Predictor bit: 0	 Opcode: 7
39956000: global: CGRA: NOOP.Execute()
39956000: global: Distance is: 0
39956000: system.cpu: Ins: 6306136064, 177e00000 @ PE 11
39956000: global: Predictor bit: 0	 Opcode: 7
39956000: global: CGRA: NOOP.Execute()
39956000: global: Distance is: 0
39956000: system.cpu: Ins: 6306136064, 177e00000 @ PE 12
39956000: global: Predictor bit: 0	 Opcode: 7
39956000: global: CGRA: NOOP.Execute()
39956000: global: Distance is: 0
39956000: system.cpu: Ins: 6306136064, 177e00000 @ PE 13
39956000: global: Predictor bit: 0	 Opcode: 7
39956000: global: CGRA: NOOP.Execute()
39956000: global: Distance is: 0
39956000: system.cpu: Ins: 6306136064, 177e00000 @ PE 14
39956000: global: Predictor bit: 0	 Opcode: 7
39956000: global: CGRA: NOOP.Execute()
39956000: global: Distance is: 0
39956000: system.cpu: Ins: 6306136064, 177e00000 @ PE 15
39956000: global: Predictor bit: 0	 Opcode: 7
39956000: global: CGRA: NOOP.Execute()
39956000: global: Distance is: 0
39956000: system.cpu: CGRA advanceTime complete.
39956000: system.cpu: *******IN ADVANCE PC******
39956000: system.cpu: build/ARM/cpu/atomiccgra/atomiccgra.cc,CGRA_advancePC,1763,PC:a48f0
39956000: system.cpu: Passed Complete Drain().
39956000: system.cpu: Make latency status=1.
39956000: system.cpu: Inside status idle.
39956000: system.cpu: Exiting schedule events
39956000: system.cpu: We are here after Execution
39956500: system.cpu: Inside CGRA Execution else statement.
39956500: system.cpu: Inside CGRA_Execution block.
39956500: system.cpu: 
CALL IN NOW CGRA_Execution.
39956500: global: 
******** DB INPUT2 ReadAddress0************
39956500: global: 
IN READ REGFILE R0 = 632384
39956500: global: R0: 632384	R1: 0	R2: 0	R3: 0

*********** CGRA EXECUTE - PRINT C ****************

39956500: system.cpu: Ins: 5335171072, 13e004000 @ PE 0
39956500: global: Predictor bit: 1	 Opcode: 3
39956500: global: 
Input1 = 0	Input2 = 632384
39956500: global: 
******** LDUI IN THIS PE 0************
39956500: global: 
************** WE *****************
39956500: global: 
IN READ REGFILE R0 = 632384
39956500: global: R0: 632384	R1: 0	R2: 0	R3: 0
39956500: global: 
WRITE: REG NUMBER: 0 dist: 0
39956500: global: R0: 632384	R1: 0	R2: 0	R3: 0
39956500: global: 
WRITE: FPREG NUMBER: 0 dist: 0
39956500: global: FPR0: 632384	FPR1: 0	FPR2: 0	FPR3: 0
39956500: global: Writing output 632384 to register 0
39956500: global: Distance is: 0
39956500: system.cpu: Ins: 6306136064, 177e00000 @ PE 1
39956500: global: Predictor bit: 0	 Opcode: 7
39956500: global: CGRA: NOOP.Execute()
39956500: global: Distance is: 0
39956500: system.cpu: Ins: 6306136064, 177e00000 @ PE 2
39956500: global: Predictor bit: 0	 Opcode: 7
39956500: global: CGRA: NOOP.Execute()
39956500: global: Distance is: 0
39956500: system.cpu: Ins: 6306136064, 177e00000 @ PE 3
39956500: global: Predictor bit: 0	 Opcode: 7
39956500: global: CGRA: NOOP.Execute()
39956500: global: Distance is: 0
39956500: system.cpu: Ins: 6306136064, 177e00000 @ PE 4
39956500: global: Predictor bit: 0	 Opcode: 7
39956500: global: CGRA: NOOP.Execute()
39956500: global: Distance is: 0
39956500: system.cpu: Ins: 6306136064, 177e00000 @ PE 5
39956500: global: Predictor bit: 0	 Opcode: 7
39956500: global: CGRA: NOOP.Execute()
39956500: global: Distance is: 0
39956500: system.cpu: Ins: 6306136064, 177e00000 @ PE 6
39956500: global: Predictor bit: 0	 Opcode: 7
39956500: global: CGRA: NOOP.Execute()
39956500: global: Distance is: 0
39956500: system.cpu: Ins: 6306136064, 177e00000 @ PE 7
39956500: global: Predictor bit: 0	 Opcode: 7
39956500: global: CGRA: NOOP.Execute()
39956500: global: Distance is: 0
39956500: system.cpu: Ins: 6306136064, 177e00000 @ PE 8
39956500: global: Predictor bit: 0	 Opcode: 7
39956500: global: CGRA: NOOP.Execute()
39956500: global: Distance is: 0
39956500: system.cpu: Ins: 6306136064, 177e00000 @ PE 9
39956500: global: Predictor bit: 0	 Opcode: 7
39956500: global: CGRA: NOOP.Execute()
39956500: global: Distance is: 0
39956500: system.cpu: Ins: 6306136064, 177e00000 @ PE 10
39956500: global: Predictor bit: 0	 Opcode: 7
39956500: global: CGRA: NOOP.Execute()
39956500: global: Distance is: 0
39956500: system.cpu: Ins: 6306136064, 177e00000 @ PE 11
39956500: global: Predictor bit: 0	 Opcode: 7
39956500: global: CGRA: NOOP.Execute()
39956500: global: Distance is: 0
39956500: system.cpu: Ins: 6306136064, 177e00000 @ PE 12
39956500: global: Predictor bit: 0	 Opcode: 7
39956500: global: CGRA: NOOP.Execute()
39956500: global: Distance is: 0
39956500: system.cpu: Ins: 6306136064, 177e00000 @ PE 13
39956500: global: Predictor bit: 0	 Opcode: 7
39956500: global: CGRA: NOOP.Execute()
39956500: global: Distance is: 0
39956500: system.cpu: Ins: 6306136064, 177e00000 @ PE 14
39956500: global: Predictor bit: 0	 Opcode: 7
39956500: global: CGRA: NOOP.Execute()
39956500: global: Distance is: 0
39956500: system.cpu: Ins: 6306136064, 177e00000 @ PE 15
39956500: global: Predictor bit: 0	 Opcode: 7
39956500: global: CGRA: NOOP.Execute()
39956500: global: Distance is: 0
39956500: system.cpu: CGRA advanceTime complete.
39956500: system.cpu: *******IN ADVANCE PC******
39956500: system.cpu: build/ARM/cpu/atomiccgra/atomiccgra.cc,CGRA_advancePC,1763,PC:a4970
39956500: system.cpu: Passed Complete Drain().
39956500: system.cpu: Make latency status=1.
39956500: system.cpu: Inside status idle.
39956500: system.cpu: Exiting schedule events
39956500: system.cpu: We are here after Execution
39957000: system.cpu: Inside CGRA Execution else statement.
39957000: system.cpu: Inside CGRA_Execution block.
39957000: system.cpu: 
CALL IN NOW CGRA_Execution.
39957000: global: 
******** DB INPUT1 ReadAddress0************
39957000: global: 
IN READ REGFILE R0 = 632384
39957000: global: R0: 632384	R1: 0	R2: 0	R3: 0

*********** CGRA EXECUTE - PRINT C ****************

39957000: system.cpu: Ins: 6052388868, 168c02004 @ PE 0
39957000: global: Predictor bit: 1	 Opcode: 6
39957000: global: 
Input1 = 632384	Input2 = 4
39957000: global: 
******** ADDRESS GENERATED IN THIS PE 632384************
39957000: global: 
*********Setting Address 9a640 ******
39957000: global: Distance is: 0
39957000: system.cpu: Ins: 6306136064, 177e00000 @ PE 1
39957000: global: Predictor bit: 0	 Opcode: 7
39957000: global: CGRA: NOOP.Execute()
39957000: global: Distance is: 0
39957000: system.cpu: Ins: 6306136064, 177e00000 @ PE 2
39957000: global: Predictor bit: 0	 Opcode: 7
39957000: global: CGRA: NOOP.Execute()
39957000: global: Distance is: 0
39957000: system.cpu: Ins: 6306136064, 177e00000 @ PE 3
39957000: global: Predictor bit: 0	 Opcode: 7
39957000: global: CGRA: NOOP.Execute()
39957000: global: Distance is: 0
39957000: system.cpu: Ins: 6306136064, 177e00000 @ PE 4
39957000: global: Predictor bit: 0	 Opcode: 7
39957000: global: CGRA: NOOP.Execute()
39957000: global: Distance is: 0
39957000: system.cpu: Ins: 6306136064, 177e00000 @ PE 5
39957000: global: Predictor bit: 0	 Opcode: 7
39957000: global: CGRA: NOOP.Execute()
39957000: global: Distance is: 0
39957000: system.cpu: Ins: 6306136064, 177e00000 @ PE 6
39957000: global: Predictor bit: 0	 Opcode: 7
39957000: global: CGRA: NOOP.Execute()
39957000: global: Distance is: 0
39957000: system.cpu: Ins: 6306136064, 177e00000 @ PE 7
39957000: global: Predictor bit: 0	 Opcode: 7
39957000: global: CGRA: NOOP.Execute()
39957000: global: Distance is: 0
39957000: system.cpu: Ins: 6306136064, 177e00000 @ PE 8
39957000: global: Predictor bit: 0	 Opcode: 7
39957000: global: CGRA: NOOP.Execute()
39957000: global: Distance is: 0
39957000: system.cpu: Ins: 6306136064, 177e00000 @ PE 9
39957000: global: Predictor bit: 0	 Opcode: 7
39957000: global: CGRA: NOOP.Execute()
39957000: global: Distance is: 0
39957000: system.cpu: Ins: 6306136064, 177e00000 @ PE 10
39957000: global: Predictor bit: 0	 Opcode: 7
39957000: global: CGRA: NOOP.Execute()
39957000: global: Distance is: 0
39957000: system.cpu: Ins: 6306136064, 177e00000 @ PE 11
39957000: global: Predictor bit: 0	 Opcode: 7
39957000: global: CGRA: NOOP.Execute()
39957000: global: Distance is: 0
39957000: system.cpu: Ins: 6306136064, 177e00000 @ PE 12
39957000: global: Predictor bit: 0	 Opcode: 7
39957000: global: CGRA: NOOP.Execute()
39957000: global: Distance is: 0
39957000: system.cpu: Ins: 6306136064, 177e00000 @ PE 13
39957000: global: Predictor bit: 0	 Opcode: 7
39957000: global: CGRA: NOOP.Execute()
39957000: global: Distance is: 0
39957000: system.cpu: Ins: 6306136064, 177e00000 @ PE 14
39957000: global: Predictor bit: 0	 Opcode: 7
39957000: global: CGRA: NOOP.Execute()
39957000: global: Distance is: 0
39957000: system.cpu: Ins: 6306136064, 177e00000 @ PE 15
39957000: global: Predictor bit: 0	 Opcode: 7
39957000: global: CGRA: NOOP.Execute()
39957000: global: Distance is: 0

************* MEM READ *************
Row: 0 - address: 632384 - data: 10
39957000: system.cpu: CGRA advanceTime complete.
39957000: system.cpu: *******IN ADVANCE PC******
39957000: system.cpu: build/ARM/cpu/atomiccgra/atomiccgra.cc,CGRA_advancePC,1763,PC:a49f0
39957000: system.cpu: Passed Complete Drain().
39957000: system.cpu: Make latency status=1.
39957000: system.cpu: Inside status idle.
39957000: system.cpu: Exiting schedule events
39957000: system.cpu: We are here after Execution
39957500: system.cpu: Inside CGRA Execution else statement.
39957500: system.cpu: Inside CGRA_Execution block.
39957500: system.cpu: 
CALL IN NOW CGRA_Execution.
39957500: global: 
******** DB INPUT1 10************

*********** CGRA EXECUTE - PRINT C ****************

39957500: system.cpu: Ins: 4391452672, 105c04000 @ PE 0
39957500: global: Predictor bit: 0	 Opcode: 0
39957500: global: 
Input1 = 10	Input2 = 0
39957500: global: 
******** SUM IN THIS PE 10************
39957500: global: 
************** WE *****************
39957500: global: 
WRITE: REG NUMBER: 0 dist: 0
39957500: global: R0: 10	R1: 0	R2: 0	R3: 0
39957500: global: 
WRITE: FPREG NUMBER: 0 dist: 0
39957500: global: FPR0: 10	FPR1: 0	FPR2: 0	FPR3: 0
39957500: global: Writing output 10 to register 0
39957500: global: Distance is: 0
39957500: system.cpu: Ins: 6306136064, 177e00000 @ PE 1
39957500: global: Predictor bit: 0	 Opcode: 7
39957500: global: CGRA: NOOP.Execute()
39957500: global: Distance is: 0
39957500: system.cpu: Ins: 6306136064, 177e00000 @ PE 2
39957500: global: Predictor bit: 0	 Opcode: 7
39957500: global: CGRA: NOOP.Execute()
39957500: global: Distance is: 0
39957500: system.cpu: Ins: 6306136064, 177e00000 @ PE 3
39957500: global: Predictor bit: 0	 Opcode: 7
39957500: global: CGRA: NOOP.Execute()
39957500: global: Distance is: 0
39957500: system.cpu: Ins: 6306136064, 177e00000 @ PE 4
39957500: global: Predictor bit: 0	 Opcode: 7
39957500: global: CGRA: NOOP.Execute()
39957500: global: Distance is: 0
39957500: system.cpu: Ins: 6306136064, 177e00000 @ PE 5
39957500: global: Predictor bit: 0	 Opcode: 7
39957500: global: CGRA: NOOP.Execute()
39957500: global: Distance is: 0
39957500: system.cpu: Ins: 6306136064, 177e00000 @ PE 6
39957500: global: Predictor bit: 0	 Opcode: 7
39957500: global: CGRA: NOOP.Execute()
39957500: global: Distance is: 0
39957500: system.cpu: Ins: 6306136064, 177e00000 @ PE 7
39957500: global: Predictor bit: 0	 Opcode: 7
39957500: global: CGRA: NOOP.Execute()
39957500: global: Distance is: 0
39957500: system.cpu: Ins: 6306136064, 177e00000 @ PE 8
39957500: global: Predictor bit: 0	 Opcode: 7
39957500: global: CGRA: NOOP.Execute()
39957500: global: Distance is: 0
39957500: system.cpu: Ins: 6306136064, 177e00000 @ PE 9
39957500: global: Predictor bit: 0	 Opcode: 7
39957500: global: CGRA: NOOP.Execute()
39957500: global: Distance is: 0
39957500: system.cpu: Ins: 6306136064, 177e00000 @ PE 10
39957500: global: Predictor bit: 0	 Opcode: 7
39957500: global: CGRA: NOOP.Execute()
39957500: global: Distance is: 0
39957500: system.cpu: Ins: 6306136064, 177e00000 @ PE 11
39957500: global: Predictor bit: 0	 Opcode: 7
39957500: global: CGRA: NOOP.Execute()
39957500: global: Distance is: 0
39957500: system.cpu: Ins: 6306136064, 177e00000 @ PE 12
39957500: global: Predictor bit: 0	 Opcode: 7
39957500: global: CGRA: NOOP.Execute()
39957500: global: Distance is: 0
39957500: system.cpu: Ins: 6306136064, 177e00000 @ PE 13
39957500: global: Predictor bit: 0	 Opcode: 7
39957500: global: CGRA: NOOP.Execute()
39957500: global: Distance is: 0
39957500: system.cpu: Ins: 6306136064, 177e00000 @ PE 14
39957500: global: Predictor bit: 0	 Opcode: 7
39957500: global: CGRA: NOOP.Execute()
39957500: global: Distance is: 0
39957500: system.cpu: Ins: 6306136064, 177e00000 @ PE 15
39957500: global: Predictor bit: 0	 Opcode: 7
39957500: global: CGRA: NOOP.Execute()
39957500: global: Distance is: 0

************* MEM READ *************
Row: 0 - address: 632384 - data: 10
39957500: system.cpu: CGRA advanceTime complete.
39957500: system.cpu: *******IN ADVANCE PC******
39957500: system.cpu: build/ARM/cpu/atomiccgra/atomiccgra.cc,CGRA_advancePC,1763,PC:a4a70
39957500: system.cpu: Passed Complete Drain().
39957500: system.cpu: Make latency status=1.
39957500: system.cpu: Inside status idle.
39957500: system.cpu: Exiting schedule events
39957500: system.cpu: We are here after Execution
39958000: system.cpu: Inside CGRA Execution else statement.
39958000: system.cpu: Inside CGRA_Execution block.
39958000: system.cpu: 
CALL IN NOW CGRA_Execution.
39958000: global: 
******** DB INPUT2 ReadAddress0************
39958000: global: 
IN READ REGFILE R0 = 10
39958000: global: R0: 10	R1: 0	R2: 0	R3: 0

*********** CGRA EXECUTE - PRINT C ****************

39958000: system.cpu: Ins: 4798300160, 11e004000 @ PE 0
39958000: global: Predictor bit: 1	 Opcode: 1
39958000: global: 
Input1 = 0	Input2 = 10
39958000: global: 
******** LDI IN THIS PE 0************
39958000: global: 
************** WE *****************
39958000: global: 
WRITE: REG NUMBER: 0 dist: 0
39958000: global: R0: 0	R1: 0	R2: 0	R3: 0
39958000: global: 
WRITE: FPREG NUMBER: 0 dist: 0
39958000: global: FPR0: 0	FPR1: 0	FPR2: 0	FPR3: 0
39958000: global: Writing output 0 to register 0
39958000: global: Distance is: 0
39958000: system.cpu: Ins: 6306136064, 177e00000 @ PE 1
39958000: global: Predictor bit: 0	 Opcode: 7
39958000: global: CGRA: NOOP.Execute()
39958000: global: Distance is: 0
39958000: system.cpu: Ins: 6306136064, 177e00000 @ PE 2
39958000: global: Predictor bit: 0	 Opcode: 7
39958000: global: CGRA: NOOP.Execute()
39958000: global: Distance is: 0
39958000: system.cpu: Ins: 6306136064, 177e00000 @ PE 3
39958000: global: Predictor bit: 0	 Opcode: 7
39958000: global: CGRA: NOOP.Execute()
39958000: global: Distance is: 0
39958000: system.cpu: Ins: 6306136064, 177e00000 @ PE 4
39958000: global: Predictor bit: 0	 Opcode: 7
39958000: global: CGRA: NOOP.Execute()
39958000: global: Distance is: 0
39958000: system.cpu: Ins: 6306136064, 177e00000 @ PE 5
39958000: global: Predictor bit: 0	 Opcode: 7
39958000: global: CGRA: NOOP.Execute()
39958000: global: Distance is: 0
39958000: system.cpu: Ins: 6306136064, 177e00000 @ PE 6
39958000: global: Predictor bit: 0	 Opcode: 7
39958000: global: CGRA: NOOP.Execute()
39958000: global: Distance is: 0
39958000: system.cpu: Ins: 6306136064, 177e00000 @ PE 7
39958000: global: Predictor bit: 0	 Opcode: 7
39958000: global: CGRA: NOOP.Execute()
39958000: global: Distance is: 0
39958000: system.cpu: Ins: 6306136064, 177e00000 @ PE 8
39958000: global: Predictor bit: 0	 Opcode: 7
39958000: global: CGRA: NOOP.Execute()
39958000: global: Distance is: 0
39958000: system.cpu: Ins: 6306136064, 177e00000 @ PE 9
39958000: global: Predictor bit: 0	 Opcode: 7
39958000: global: CGRA: NOOP.Execute()
39958000: global: Distance is: 0
39958000: system.cpu: Ins: 6306136064, 177e00000 @ PE 10
39958000: global: Predictor bit: 0	 Opcode: 7
39958000: global: CGRA: NOOP.Execute()
39958000: global: Distance is: 0
39958000: system.cpu: Ins: 6306136064, 177e00000 @ PE 11
39958000: global: Predictor bit: 0	 Opcode: 7
39958000: global: CGRA: NOOP.Execute()
39958000: global: Distance is: 0
39958000: system.cpu: Ins: 6306136064, 177e00000 @ PE 12
39958000: global: Predictor bit: 0	 Opcode: 7
39958000: global: CGRA: NOOP.Execute()
39958000: global: Distance is: 0
39958000: system.cpu: Ins: 6306136064, 177e00000 @ PE 13
39958000: global: Predictor bit: 0	 Opcode: 7
39958000: global: CGRA: NOOP.Execute()
39958000: global: Distance is: 0
39958000: system.cpu: Ins: 6306136064, 177e00000 @ PE 14
39958000: global: Predictor bit: 0	 Opcode: 7
39958000: global: CGRA: NOOP.Execute()
39958000: global: Distance is: 0
39958000: system.cpu: Ins: 6306136064, 177e00000 @ PE 15
39958000: global: Predictor bit: 0	 Opcode: 7
39958000: global: CGRA: NOOP.Execute()
39958000: global: Distance is: 0

************* MEM READ *************
Row: 0 - address: 632384 - data: 10
39958000: system.cpu: CGRA advanceTime complete.
39958000: system.cpu: *******IN ADVANCE PC******
39958000: system.cpu: build/ARM/cpu/atomiccgra/atomiccgra.cc,CGRA_advancePC,1763,PC:a4af0
39958000: system.cpu: Passed Complete Drain().
39958000: system.cpu: Make latency status=1.
39958000: system.cpu: Inside status idle.
39958000: system.cpu: Exiting schedule events
39958000: system.cpu: We are here after Execution
39958500: system.cpu: Inside CGRA Execution else statement.
39958500: system.cpu: Inside CGRA_Execution block.
39958500: system.cpu: 
CALL IN NOW CGRA_Execution.
39958500: global: 
******** DB INPUT2 ReadAddress0************
39958500: global: 
IN READ REGFILE R0 = 0
39958500: global: R0: 0	R1: 0	R2: 0	R3: 0

*********** CGRA EXECUTE - PRINT C ****************

39958500: system.cpu: Ins: 5066735616, 12e004000 @ PE 0
39958500: global: Predictor bit: 1	 Opcode: 2
39958500: global: 
Input1 = 0	Input2 = 0
39958500: global: 
******** LDMI IN THIS PE 0************
39958500: global: 
************** WE *****************
39958500: global: 
IN READ REGFILE R0 = 0
39958500: global: R0: 0	R1: 0	R2: 0	R3: 0
39958500: global: 
WRITE: REG NUMBER: 0 dist: 0
39958500: global: R0: 0	R1: 0	R2: 0	R3: 0
39958500: global: 
WRITE: FPREG NUMBER: 0 dist: 0
39958500: global: FPR0: 0	FPR1: 0	FPR2: 0	FPR3: 0
39958500: global: Writing output 0 to register 0
39958500: global: Distance is: 0
39958500: system.cpu: Ins: 6306136064, 177e00000 @ PE 1
39958500: global: Predictor bit: 0	 Opcode: 7
39958500: global: CGRA: NOOP.Execute()
39958500: global: Distance is: 0
39958500: system.cpu: Ins: 6306136064, 177e00000 @ PE 2
39958500: global: Predictor bit: 0	 Opcode: 7
39958500: global: CGRA: NOOP.Execute()
39958500: global: Distance is: 0
39958500: system.cpu: Ins: 6306136064, 177e00000 @ PE 3
39958500: global: Predictor bit: 0	 Opcode: 7
39958500: global: CGRA: NOOP.Execute()
39958500: global: Distance is: 0
39958500: system.cpu: Ins: 6306136064, 177e00000 @ PE 4
39958500: global: Predictor bit: 0	 Opcode: 7
39958500: global: CGRA: NOOP.Execute()
39958500: global: Distance is: 0
39958500: system.cpu: Ins: 6306136064, 177e00000 @ PE 5
39958500: global: Predictor bit: 0	 Opcode: 7
39958500: global: CGRA: NOOP.Execute()
39958500: global: Distance is: 0
39958500: system.cpu: Ins: 6306136064, 177e00000 @ PE 6
39958500: global: Predictor bit: 0	 Opcode: 7
39958500: global: CGRA: NOOP.Execute()
39958500: global: Distance is: 0
39958500: system.cpu: Ins: 6306136064, 177e00000 @ PE 7
39958500: global: Predictor bit: 0	 Opcode: 7
39958500: global: CGRA: NOOP.Execute()
39958500: global: Distance is: 0
39958500: system.cpu: Ins: 6306136064, 177e00000 @ PE 8
39958500: global: Predictor bit: 0	 Opcode: 7
39958500: global: CGRA: NOOP.Execute()
39958500: global: Distance is: 0
39958500: system.cpu: Ins: 6306136064, 177e00000 @ PE 9
39958500: global: Predictor bit: 0	 Opcode: 7
39958500: global: CGRA: NOOP.Execute()
39958500: global: Distance is: 0
39958500: system.cpu: Ins: 6306136064, 177e00000 @ PE 10
39958500: global: Predictor bit: 0	 Opcode: 7
39958500: global: CGRA: NOOP.Execute()
39958500: global: Distance is: 0
39958500: system.cpu: Ins: 6306136064, 177e00000 @ PE 11
39958500: global: Predictor bit: 0	 Opcode: 7
39958500: global: CGRA: NOOP.Execute()
39958500: global: Distance is: 0
39958500: system.cpu: Ins: 6306136064, 177e00000 @ PE 12
39958500: global: Predictor bit: 0	 Opcode: 7
39958500: global: CGRA: NOOP.Execute()
39958500: global: Distance is: 0
39958500: system.cpu: Ins: 6306136064, 177e00000 @ PE 13
39958500: global: Predictor bit: 0	 Opcode: 7
39958500: global: CGRA: NOOP.Execute()
39958500: global: Distance is: 0
39958500: system.cpu: Ins: 6306136064, 177e00000 @ PE 14
39958500: global: Predictor bit: 0	 Opcode: 7
39958500: global: CGRA: NOOP.Execute()
39958500: global: Distance is: 0
39958500: system.cpu: Ins: 6306136064, 177e00000 @ PE 15
39958500: global: Predictor bit: 0	 Opcode: 7
39958500: global: CGRA: NOOP.Execute()
39958500: global: Distance is: 0

************* MEM READ *************
Row: 0 - address: 632384 - data: 10
39958500: system.cpu: CGRA advanceTime complete.
39958500: system.cpu: *******IN ADVANCE PC******
39958500: system.cpu: build/ARM/cpu/atomiccgra/atomiccgra.cc,CGRA_advancePC,1763,PC:a4b70
39958500: system.cpu: Passed Complete Drain().
39958500: system.cpu: Make latency status=1.
39958500: system.cpu: Inside status idle.
39958500: system.cpu: Exiting schedule events
39958500: system.cpu: We are here after Execution
39959000: system.cpu: Inside CGRA Execution else statement.
39959000: system.cpu: Inside CGRA_Execution block.
39959000: system.cpu: 
CALL IN NOW CGRA_Execution.
39959000: global: 
******** DB INPUT2 ReadAddress0************
39959000: global: 
IN READ REGFILE R0 = 0
39959000: global: R0: 0	R1: 0	R2: 0	R3: 0

*********** CGRA EXECUTE - PRINT C ****************

39959000: system.cpu: Ins: 5335171072, 13e004000 @ PE 0
39959000: global: Predictor bit: 1	 Opcode: 3
39959000: global: 
Input1 = 0	Input2 = 0
39959000: global: 
******** LDUI IN THIS PE 0************
39959000: global: 
************** WE *****************
39959000: global: 
IN READ REGFILE R0 = 0
39959000: global: R0: 0	R1: 0	R2: 0	R3: 0
39959000: global: 
WRITE: REG NUMBER: 0 dist: 0
39959000: global: R0: 0	R1: 0	R2: 0	R3: 0
39959000: global: 
WRITE: FPREG NUMBER: 0 dist: 0
39959000: global: FPR0: 0	FPR1: 0	FPR2: 0	FPR3: 0
39959000: global: Writing output 0 to register 0
39959000: global: Distance is: 0
39959000: system.cpu: Ins: 6306136064, 177e00000 @ PE 1
39959000: global: Predictor bit: 0	 Opcode: 7
39959000: global: CGRA: NOOP.Execute()
39959000: global: Distance is: 0
39959000: system.cpu: Ins: 6306136064, 177e00000 @ PE 2
39959000: global: Predictor bit: 0	 Opcode: 7
39959000: global: CGRA: NOOP.Execute()
39959000: global: Distance is: 0
39959000: system.cpu: Ins: 6306136064, 177e00000 @ PE 3
39959000: global: Predictor bit: 0	 Opcode: 7
39959000: global: CGRA: NOOP.Execute()
39959000: global: Distance is: 0
39959000: system.cpu: Ins: 6306136064, 177e00000 @ PE 4
39959000: global: Predictor bit: 0	 Opcode: 7
39959000: global: CGRA: NOOP.Execute()
39959000: global: Distance is: 0
39959000: system.cpu: Ins: 6306136064, 177e00000 @ PE 5
39959000: global: Predictor bit: 0	 Opcode: 7
39959000: global: CGRA: NOOP.Execute()
39959000: global: Distance is: 0
39959000: system.cpu: Ins: 6306136064, 177e00000 @ PE 6
39959000: global: Predictor bit: 0	 Opcode: 7
39959000: global: CGRA: NOOP.Execute()
39959000: global: Distance is: 0
39959000: system.cpu: Ins: 6306136064, 177e00000 @ PE 7
39959000: global: Predictor bit: 0	 Opcode: 7
39959000: global: CGRA: NOOP.Execute()
39959000: global: Distance is: 0
39959000: system.cpu: Ins: 6306136064, 177e00000 @ PE 8
39959000: global: Predictor bit: 0	 Opcode: 7
39959000: global: CGRA: NOOP.Execute()
39959000: global: Distance is: 0
39959000: system.cpu: Ins: 6306136064, 177e00000 @ PE 9
39959000: global: Predictor bit: 0	 Opcode: 7
39959000: global: CGRA: NOOP.Execute()
39959000: global: Distance is: 0
39959000: system.cpu: Ins: 6306136064, 177e00000 @ PE 10
39959000: global: Predictor bit: 0	 Opcode: 7
39959000: global: CGRA: NOOP.Execute()
39959000: global: Distance is: 0
39959000: system.cpu: Ins: 6306136064, 177e00000 @ PE 11
39959000: global: Predictor bit: 0	 Opcode: 7
39959000: global: CGRA: NOOP.Execute()
39959000: global: Distance is: 0
39959000: system.cpu: Ins: 6306136064, 177e00000 @ PE 12
39959000: global: Predictor bit: 0	 Opcode: 7
39959000: global: CGRA: NOOP.Execute()
39959000: global: Distance is: 0
39959000: system.cpu: Ins: 6306136064, 177e00000 @ PE 13
39959000: global: Predictor bit: 0	 Opcode: 7
39959000: global: CGRA: NOOP.Execute()
39959000: global: Distance is: 0
39959000: system.cpu: Ins: 6306136064, 177e00000 @ PE 14
39959000: global: Predictor bit: 0	 Opcode: 7
39959000: global: CGRA: NOOP.Execute()
39959000: global: Distance is: 0
39959000: system.cpu: Ins: 6306136064, 177e00000 @ PE 15
39959000: global: Predictor bit: 0	 Opcode: 7
39959000: global: CGRA: NOOP.Execute()
39959000: global: Distance is: 0

************* MEM READ *************
Row: 0 - address: 632384 - data: 10
39959000: system.cpu: CGRA advanceTime complete.
39959000: system.cpu: *******IN ADVANCE PC******
39959000: system.cpu: build/ARM/cpu/atomiccgra/atomiccgra.cc,CGRA_advancePC,1763,PC:a4bf0
39959000: system.cpu: Passed Complete Drain().
39959000: system.cpu: Make latency status=1.
39959000: system.cpu: Inside status idle.
39959000: system.cpu: Exiting schedule events
39959000: system.cpu: We are here after Execution
39959500: system.cpu: Inside CGRA Execution else statement.
39959500: system.cpu: Inside CGRA_Execution block.
39959500: system.cpu: 
CALL IN NOW CGRA_Execution.
39959500: global: 
******** DB INPUT2 ReadAddress0************
39959500: global: 
IN READ REGFILE R0 = 0
39959500: global: R0: 0	R1: 0	R2: 0	R3: 0

*********** CGRA EXECUTE - PRINT C ****************

39959500: system.cpu: Ins: 4798332933, 11e00c005 @ PE 0
39959500: global: Predictor bit: 1	 Opcode: 1
39959500: global: 
Input1 = 5	Input2 = 0
39959500: global: 
******** LDI IN THIS PE 5************
39959500: global: 
************** WE *****************
39959500: global: 
WRITE: REG NUMBER: 1 dist: 0
39959500: global: R0: 0	R1: 5	R2: 0	R3: 0
39959500: global: 
WRITE: FPREG NUMBER: 1 dist: 0
39959500: global: FPR0: 0	FPR1: 5	FPR2: 0	FPR3: 0
39959500: global: Writing output 5 to register 1
39959500: global: Distance is: 0
39959500: system.cpu: Ins: 6306136064, 177e00000 @ PE 1
39959500: global: Predictor bit: 0	 Opcode: 7
39959500: global: CGRA: NOOP.Execute()
39959500: global: Distance is: 0
39959500: system.cpu: Ins: 6306136064, 177e00000 @ PE 2
39959500: global: Predictor bit: 0	 Opcode: 7
39959500: global: CGRA: NOOP.Execute()
39959500: global: Distance is: 0
39959500: system.cpu: Ins: 6306136064, 177e00000 @ PE 3
39959500: global: Predictor bit: 0	 Opcode: 7
39959500: global: CGRA: NOOP.Execute()
39959500: global: Distance is: 0
39959500: system.cpu: Ins: 6306136064, 177e00000 @ PE 4
39959500: global: Predictor bit: 0	 Opcode: 7
39959500: global: CGRA: NOOP.Execute()
39959500: global: Distance is: 0
39959500: system.cpu: Ins: 6306136064, 177e00000 @ PE 5
39959500: global: Predictor bit: 0	 Opcode: 7
39959500: global: CGRA: NOOP.Execute()
39959500: global: Distance is: 0
39959500: system.cpu: Ins: 6306136064, 177e00000 @ PE 6
39959500: global: Predictor bit: 0	 Opcode: 7
39959500: global: CGRA: NOOP.Execute()
39959500: global: Distance is: 0
39959500: system.cpu: Ins: 6306136064, 177e00000 @ PE 7
39959500: global: Predictor bit: 0	 Opcode: 7
39959500: global: CGRA: NOOP.Execute()
39959500: global: Distance is: 0
39959500: system.cpu: Ins: 6306136064, 177e00000 @ PE 8
39959500: global: Predictor bit: 0	 Opcode: 7
39959500: global: CGRA: NOOP.Execute()
39959500: global: Distance is: 0
39959500: system.cpu: Ins: 6306136064, 177e00000 @ PE 9
39959500: global: Predictor bit: 0	 Opcode: 7
39959500: global: CGRA: NOOP.Execute()
39959500: global: Distance is: 0
39959500: system.cpu: Ins: 6306136064, 177e00000 @ PE 10
39959500: global: Predictor bit: 0	 Opcode: 7
39959500: global: CGRA: NOOP.Execute()
39959500: global: Distance is: 0
39959500: system.cpu: Ins: 6306136064, 177e00000 @ PE 11
39959500: global: Predictor bit: 0	 Opcode: 7
39959500: global: CGRA: NOOP.Execute()
39959500: global: Distance is: 0
39959500: system.cpu: Ins: 6306136064, 177e00000 @ PE 12
39959500: global: Predictor bit: 0	 Opcode: 7
39959500: global: CGRA: NOOP.Execute()
39959500: global: Distance is: 0
39959500: system.cpu: Ins: 6306136064, 177e00000 @ PE 13
39959500: global: Predictor bit: 0	 Opcode: 7
39959500: global: CGRA: NOOP.Execute()
39959500: global: Distance is: 0
39959500: system.cpu: Ins: 6306136064, 177e00000 @ PE 14
39959500: global: Predictor bit: 0	 Opcode: 7
39959500: global: CGRA: NOOP.Execute()
39959500: global: Distance is: 0
39959500: system.cpu: Ins: 6306136064, 177e00000 @ PE 15
39959500: global: Predictor bit: 0	 Opcode: 7
39959500: global: CGRA: NOOP.Execute()
39959500: global: Distance is: 0

************* MEM READ *************
Row: 0 - address: 632384 - data: 10
39959500: system.cpu: CGRA advanceTime complete.
39959500: system.cpu: *******IN ADVANCE PC******
39959500: system.cpu: build/ARM/cpu/atomiccgra/atomiccgra.cc,CGRA_advancePC,1763,PC:a4c70
39959500: system.cpu: Passed Complete Drain().
39959500: system.cpu: Make latency status=1.
39959500: system.cpu: Inside status idle.
39959500: system.cpu: Exiting schedule events
39959500: system.cpu: We are here after Execution
39960000: system.cpu: Inside CGRA Execution else statement.
39960000: system.cpu: Inside CGRA_Execution block.
39960000: system.cpu: 
CALL IN NOW CGRA_Execution.
39960000: global: 
******** DB INPUT2 ReadAddress0************
39960000: global: 
IN READ REGFILE R0 = 0
39960000: global: R0: 0	R1: 5	R2: 0	R3: 0

*********** CGRA EXECUTE - PRINT C ****************

39960000: system.cpu: Ins: 5066768384, 12e00c000 @ PE 0
39960000: global: Predictor bit: 1	 Opcode: 2
39960000: global: 
Input1 = 0	Input2 = 0
39960000: global: 
******** LDMI IN THIS PE 0************
39960000: global: 
************** WE *****************
39960000: global: 
IN READ REGFILE R0 = 0
39960000: global: R0: 0	R1: 5	R2: 0	R3: 0
39960000: global: 
WRITE: REG NUMBER: 1 dist: 0
39960000: global: R0: 0	R1: 5	R2: 0	R3: 0
39960000: global: 
WRITE: FPREG NUMBER: 1 dist: 0
39960000: global: FPR0: 0	FPR1: 5	FPR2: 0	FPR3: 0
39960000: global: Writing output 5 to register 1
39960000: global: Distance is: 0
39960000: system.cpu: Ins: 6306136064, 177e00000 @ PE 1
39960000: global: Predictor bit: 0	 Opcode: 7
39960000: global: CGRA: NOOP.Execute()
39960000: global: Distance is: 0
39960000: system.cpu: Ins: 6306136064, 177e00000 @ PE 2
39960000: global: Predictor bit: 0	 Opcode: 7
39960000: global: CGRA: NOOP.Execute()
39960000: global: Distance is: 0
39960000: system.cpu: Ins: 6306136064, 177e00000 @ PE 3
39960000: global: Predictor bit: 0	 Opcode: 7
39960000: global: CGRA: NOOP.Execute()
39960000: global: Distance is: 0
39960000: system.cpu: Ins: 6306136064, 177e00000 @ PE 4
39960000: global: Predictor bit: 0	 Opcode: 7
39960000: global: CGRA: NOOP.Execute()
39960000: global: Distance is: 0
39960000: system.cpu: Ins: 6306136064, 177e00000 @ PE 5
39960000: global: Predictor bit: 0	 Opcode: 7
39960000: global: CGRA: NOOP.Execute()
39960000: global: Distance is: 0
39960000: system.cpu: Ins: 6306136064, 177e00000 @ PE 6
39960000: global: Predictor bit: 0	 Opcode: 7
39960000: global: CGRA: NOOP.Execute()
39960000: global: Distance is: 0
39960000: system.cpu: Ins: 6306136064, 177e00000 @ PE 7
39960000: global: Predictor bit: 0	 Opcode: 7
39960000: global: CGRA: NOOP.Execute()
39960000: global: Distance is: 0
39960000: system.cpu: Ins: 6306136064, 177e00000 @ PE 8
39960000: global: Predictor bit: 0	 Opcode: 7
39960000: global: CGRA: NOOP.Execute()
39960000: global: Distance is: 0
39960000: system.cpu: Ins: 6306136064, 177e00000 @ PE 9
39960000: global: Predictor bit: 0	 Opcode: 7
39960000: global: CGRA: NOOP.Execute()
39960000: global: Distance is: 0
39960000: system.cpu: Ins: 6306136064, 177e00000 @ PE 10
39960000: global: Predictor bit: 0	 Opcode: 7
39960000: global: CGRA: NOOP.Execute()
39960000: global: Distance is: 0
39960000: system.cpu: Ins: 6306136064, 177e00000 @ PE 11
39960000: global: Predictor bit: 0	 Opcode: 7
39960000: global: CGRA: NOOP.Execute()
39960000: global: Distance is: 0
39960000: system.cpu: Ins: 6306136064, 177e00000 @ PE 12
39960000: global: Predictor bit: 0	 Opcode: 7
39960000: global: CGRA: NOOP.Execute()
39960000: global: Distance is: 0
39960000: system.cpu: Ins: 6306136064, 177e00000 @ PE 13
39960000: global: Predictor bit: 0	 Opcode: 7
39960000: global: CGRA: NOOP.Execute()
39960000: global: Distance is: 0
39960000: system.cpu: Ins: 6306136064, 177e00000 @ PE 14
39960000: global: Predictor bit: 0	 Opcode: 7
39960000: global: CGRA: NOOP.Execute()
39960000: global: Distance is: 0
39960000: system.cpu: Ins: 6306136064, 177e00000 @ PE 15
39960000: global: Predictor bit: 0	 Opcode: 7
39960000: global: CGRA: NOOP.Execute()
39960000: global: Distance is: 0

************* MEM READ *************
Row: 0 - address: 632384 - data: 10
39960000: system.cpu: CGRA advanceTime complete.
39960000: system.cpu: *******IN ADVANCE PC******
39960000: system.cpu: build/ARM/cpu/atomiccgra/atomiccgra.cc,CGRA_advancePC,1763,PC:a4cf0
39960000: system.cpu: Passed Complete Drain().
39960000: system.cpu: Make latency status=1.
39960000: system.cpu: Inside status idle.
39960000: system.cpu: Exiting schedule events
39960000: system.cpu: We are here after Execution
39960500: system.cpu: Inside CGRA Execution else statement.
39960500: system.cpu: Inside CGRA_Execution block.
39960500: system.cpu: 
CALL IN NOW CGRA_Execution.
39960500: global: 
******** DB INPUT2 ReadAddress0************
39960500: global: 
IN READ REGFILE R0 = 0
39960500: global: R0: 0	R1: 5	R2: 0	R3: 0

*********** CGRA EXECUTE - PRINT C ****************

39960500: system.cpu: Ins: 5335203840, 13e00c000 @ PE 0
39960500: global: Predictor bit: 1	 Opcode: 3
39960500: global: 
Input1 = 0	Input2 = 0
39960500: global: 
******** LDUI IN THIS PE 0************
39960500: global: 
************** WE *****************
39960500: global: 
IN READ REGFILE R0 = 0
39960500: global: R0: 0	R1: 5	R2: 0	R3: 0
39960500: global: 
WRITE: REG NUMBER: 1 dist: 0
39960500: global: R0: 0	R1: 5	R2: 0	R3: 0
39960500: global: 
WRITE: FPREG NUMBER: 1 dist: 0
39960500: global: FPR0: 0	FPR1: 5	FPR2: 0	FPR3: 0
39960500: global: Writing output 5 to register 1
39960500: global: Distance is: 0
39960500: system.cpu: Ins: 6306136064, 177e00000 @ PE 1
39960500: global: Predictor bit: 0	 Opcode: 7
39960500: global: CGRA: NOOP.Execute()
39960500: global: Distance is: 0
39960500: system.cpu: Ins: 6306136064, 177e00000 @ PE 2
39960500: global: Predictor bit: 0	 Opcode: 7
39960500: global: CGRA: NOOP.Execute()
39960500: global: Distance is: 0
39960500: system.cpu: Ins: 6306136064, 177e00000 @ PE 3
39960500: global: Predictor bit: 0	 Opcode: 7
39960500: global: CGRA: NOOP.Execute()
39960500: global: Distance is: 0
39960500: system.cpu: Ins: 6306136064, 177e00000 @ PE 4
39960500: global: Predictor bit: 0	 Opcode: 7
39960500: global: CGRA: NOOP.Execute()
39960500: global: Distance is: 0
39960500: system.cpu: Ins: 6306136064, 177e00000 @ PE 5
39960500: global: Predictor bit: 0	 Opcode: 7
39960500: global: CGRA: NOOP.Execute()
39960500: global: Distance is: 0
39960500: system.cpu: Ins: 6306136064, 177e00000 @ PE 6
39960500: global: Predictor bit: 0	 Opcode: 7
39960500: global: CGRA: NOOP.Execute()
39960500: global: Distance is: 0
39960500: system.cpu: Ins: 6306136064, 177e00000 @ PE 7
39960500: global: Predictor bit: 0	 Opcode: 7
39960500: global: CGRA: NOOP.Execute()
39960500: global: Distance is: 0
39960500: system.cpu: Ins: 6306136064, 177e00000 @ PE 8
39960500: global: Predictor bit: 0	 Opcode: 7
39960500: global: CGRA: NOOP.Execute()
39960500: global: Distance is: 0
39960500: system.cpu: Ins: 6306136064, 177e00000 @ PE 9
39960500: global: Predictor bit: 0	 Opcode: 7
39960500: global: CGRA: NOOP.Execute()
39960500: global: Distance is: 0
39960500: system.cpu: Ins: 6306136064, 177e00000 @ PE 10
39960500: global: Predictor bit: 0	 Opcode: 7
39960500: global: CGRA: NOOP.Execute()
39960500: global: Distance is: 0
39960500: system.cpu: Ins: 6306136064, 177e00000 @ PE 11
39960500: global: Predictor bit: 0	 Opcode: 7
39960500: global: CGRA: NOOP.Execute()
39960500: global: Distance is: 0
39960500: system.cpu: Ins: 6306136064, 177e00000 @ PE 12
39960500: global: Predictor bit: 0	 Opcode: 7
39960500: global: CGRA: NOOP.Execute()
39960500: global: Distance is: 0
39960500: system.cpu: Ins: 6306136064, 177e00000 @ PE 13
39960500: global: Predictor bit: 0	 Opcode: 7
39960500: global: CGRA: NOOP.Execute()
39960500: global: Distance is: 0
39960500: system.cpu: Ins: 6306136064, 177e00000 @ PE 14
39960500: global: Predictor bit: 0	 Opcode: 7
39960500: global: CGRA: NOOP.Execute()
39960500: global: Distance is: 0
39960500: system.cpu: Ins: 6306136064, 177e00000 @ PE 15
39960500: global: Predictor bit: 0	 Opcode: 7
39960500: global: CGRA: NOOP.Execute()
39960500: global: Distance is: 0

************* MEM READ *************
Row: 0 - address: 632384 - data: 10
39960500: system.cpu: CGRA advanceTime complete.
39960500: system.cpu: *******IN ADVANCE PC******
39960500: system.cpu: build/ARM/cpu/atomiccgra/atomiccgra.cc,CGRA_advancePC,1763,PC:a4d70
39960500: system.cpu: Passed Complete Drain().
39960500: system.cpu: Make latency status=1.
39960500: system.cpu: Inside status idle.
39960500: system.cpu: Exiting schedule events
39960500: system.cpu: We are here after Execution
39961000: system.cpu: Inside CGRA Execution else statement.
39961000: system.cpu: Inside CGRA_Execution block.
39961000: system.cpu: 
CALL IN NOW CGRA_Execution.
39961000: global: 
******** DB INPUT2 ReadAddress0************
39961000: global: 
IN READ REGFILE R0 = 0
39961000: global: R0: 0	R1: 5	R2: 0	R3: 0

*********** CGRA EXECUTE - PRINT C ****************

39961000: system.cpu: Ins: 4798365729, 11e014021 @ PE 0
39961000: global: Predictor bit: 1	 Opcode: 1
39961000: global: 
Input1 = 33	Input2 = 0
39961000: global: 
******** LDI IN THIS PE 33************
39961000: global: 
************** WE *****************
39961000: global: 
WRITE: REG NUMBER: 2 dist: 0
39961000: global: R0: 0	R1: 5	R2: 33	R3: 0
39961000: global: 
WRITE: FPREG NUMBER: 2 dist: 0
39961000: global: FPR0: 0	FPR1: 5	FPR2: 33	FPR3: 0
39961000: global: Writing output 33 to register 2
39961000: global: Distance is: 0
39961000: system.cpu: Ins: 6306136064, 177e00000 @ PE 1
39961000: global: Predictor bit: 0	 Opcode: 7
39961000: global: CGRA: NOOP.Execute()
39961000: global: Distance is: 0
39961000: system.cpu: Ins: 6306136064, 177e00000 @ PE 2
39961000: global: Predictor bit: 0	 Opcode: 7
39961000: global: CGRA: NOOP.Execute()
39961000: global: Distance is: 0
39961000: system.cpu: Ins: 6306136064, 177e00000 @ PE 3
39961000: global: Predictor bit: 0	 Opcode: 7
39961000: global: CGRA: NOOP.Execute()
39961000: global: Distance is: 0
39961000: system.cpu: Ins: 6306136064, 177e00000 @ PE 4
39961000: global: Predictor bit: 0	 Opcode: 7
39961000: global: CGRA: NOOP.Execute()
39961000: global: Distance is: 0
39961000: system.cpu: Ins: 6306136064, 177e00000 @ PE 5
39961000: global: Predictor bit: 0	 Opcode: 7
39961000: global: CGRA: NOOP.Execute()
39961000: global: Distance is: 0
39961000: system.cpu: Ins: 6306136064, 177e00000 @ PE 6
39961000: global: Predictor bit: 0	 Opcode: 7
39961000: global: CGRA: NOOP.Execute()
39961000: global: Distance is: 0
39961000: system.cpu: Ins: 6306136064, 177e00000 @ PE 7
39961000: global: Predictor bit: 0	 Opcode: 7
39961000: global: CGRA: NOOP.Execute()
39961000: global: Distance is: 0
39961000: system.cpu: Ins: 6306136064, 177e00000 @ PE 8
39961000: global: Predictor bit: 0	 Opcode: 7
39961000: global: CGRA: NOOP.Execute()
39961000: global: Distance is: 0
39961000: system.cpu: Ins: 6306136064, 177e00000 @ PE 9
39961000: global: Predictor bit: 0	 Opcode: 7
39961000: global: CGRA: NOOP.Execute()
39961000: global: Distance is: 0
39961000: system.cpu: Ins: 6306136064, 177e00000 @ PE 10
39961000: global: Predictor bit: 0	 Opcode: 7
39961000: global: CGRA: NOOP.Execute()
39961000: global: Distance is: 0
39961000: system.cpu: Ins: 6306136064, 177e00000 @ PE 11
39961000: global: Predictor bit: 0	 Opcode: 7
39961000: global: CGRA: NOOP.Execute()
39961000: global: Distance is: 0
39961000: system.cpu: Ins: 6306136064, 177e00000 @ PE 12
39961000: global: Predictor bit: 0	 Opcode: 7
39961000: global: CGRA: NOOP.Execute()
39961000: global: Distance is: 0
39961000: system.cpu: Ins: 6306136064, 177e00000 @ PE 13
39961000: global: Predictor bit: 0	 Opcode: 7
39961000: global: CGRA: NOOP.Execute()
39961000: global: Distance is: 0
39961000: system.cpu: Ins: 6306136064, 177e00000 @ PE 14
39961000: global: Predictor bit: 0	 Opcode: 7
39961000: global: CGRA: NOOP.Execute()
39961000: global: Distance is: 0
39961000: system.cpu: Ins: 6306136064, 177e00000 @ PE 15
39961000: global: Predictor bit: 0	 Opcode: 7
39961000: global: CGRA: NOOP.Execute()
39961000: global: Distance is: 0

************* MEM READ *************
Row: 0 - address: 632384 - data: 10
39961000: system.cpu: CGRA advanceTime complete.
39961000: system.cpu: *******IN ADVANCE PC******
39961000: system.cpu: build/ARM/cpu/atomiccgra/atomiccgra.cc,CGRA_advancePC,1763,PC:a4df0
39961000: system.cpu: Passed Complete Drain().
39961000: system.cpu: Make latency status=1.
39961000: system.cpu: Inside status idle.
39961000: system.cpu: Exiting schedule events
39961000: system.cpu: We are here after Execution
39961500: system.cpu: Inside CGRA Execution else statement.
39961500: system.cpu: Inside CGRA_Execution block.
39961500: system.cpu: 
CALL IN NOW CGRA_Execution.
39961500: global: 
******** DB INPUT2 ReadAddress0************
39961500: global: 
IN READ REGFILE R0 = 0
39961500: global: R0: 0	R1: 5	R2: 33	R3: 0

*********** CGRA EXECUTE - PRINT C ****************

39961500: system.cpu: Ins: 5066801152, 12e014000 @ PE 0
39961500: global: Predictor bit: 1	 Opcode: 2
39961500: global: 
Input1 = 0	Input2 = 0
39961500: global: 
******** LDMI IN THIS PE 0************
39961500: global: 
************** WE *****************
39961500: global: 
IN READ REGFILE R0 = 0
39961500: global: R0: 0	R1: 5	R2: 33	R3: 0
39961500: global: 
WRITE: REG NUMBER: 2 dist: 0
39961500: global: R0: 0	R1: 5	R2: 33	R3: 0
39961500: global: 
WRITE: FPREG NUMBER: 2 dist: 0
39961500: global: FPR0: 0	FPR1: 5	FPR2: 33	FPR3: 0
39961500: global: Writing output 33 to register 2
39961500: global: Distance is: 0
39961500: system.cpu: Ins: 6306136064, 177e00000 @ PE 1
39961500: global: Predictor bit: 0	 Opcode: 7
39961500: global: CGRA: NOOP.Execute()
39961500: global: Distance is: 0
39961500: system.cpu: Ins: 6306136064, 177e00000 @ PE 2
39961500: global: Predictor bit: 0	 Opcode: 7
39961500: global: CGRA: NOOP.Execute()
39961500: global: Distance is: 0
39961500: system.cpu: Ins: 6306136064, 177e00000 @ PE 3
39961500: global: Predictor bit: 0	 Opcode: 7
39961500: global: CGRA: NOOP.Execute()
39961500: global: Distance is: 0
39961500: system.cpu: Ins: 6306136064, 177e00000 @ PE 4
39961500: global: Predictor bit: 0	 Opcode: 7
39961500: global: CGRA: NOOP.Execute()
39961500: global: Distance is: 0
39961500: system.cpu: Ins: 6306136064, 177e00000 @ PE 5
39961500: global: Predictor bit: 0	 Opcode: 7
39961500: global: CGRA: NOOP.Execute()
39961500: global: Distance is: 0
39961500: system.cpu: Ins: 6306136064, 177e00000 @ PE 6
39961500: global: Predictor bit: 0	 Opcode: 7
39961500: global: CGRA: NOOP.Execute()
39961500: global: Distance is: 0
39961500: system.cpu: Ins: 6306136064, 177e00000 @ PE 7
39961500: global: Predictor bit: 0	 Opcode: 7
39961500: global: CGRA: NOOP.Execute()
39961500: global: Distance is: 0
39961500: system.cpu: Ins: 6306136064, 177e00000 @ PE 8
39961500: global: Predictor bit: 0	 Opcode: 7
39961500: global: CGRA: NOOP.Execute()
39961500: global: Distance is: 0
39961500: system.cpu: Ins: 6306136064, 177e00000 @ PE 9
39961500: global: Predictor bit: 0	 Opcode: 7
39961500: global: CGRA: NOOP.Execute()
39961500: global: Distance is: 0
39961500: system.cpu: Ins: 6306136064, 177e00000 @ PE 10
39961500: global: Predictor bit: 0	 Opcode: 7
39961500: global: CGRA: NOOP.Execute()
39961500: global: Distance is: 0
39961500: system.cpu: Ins: 6306136064, 177e00000 @ PE 11
39961500: global: Predictor bit: 0	 Opcode: 7
39961500: global: CGRA: NOOP.Execute()
39961500: global: Distance is: 0
39961500: system.cpu: Ins: 6306136064, 177e00000 @ PE 12
39961500: global: Predictor bit: 0	 Opcode: 7
39961500: global: CGRA: NOOP.Execute()
39961500: global: Distance is: 0
39961500: system.cpu: Ins: 6306136064, 177e00000 @ PE 13
39961500: global: Predictor bit: 0	 Opcode: 7
39961500: global: CGRA: NOOP.Execute()
39961500: global: Distance is: 0
39961500: system.cpu: Ins: 6306136064, 177e00000 @ PE 14
39961500: global: Predictor bit: 0	 Opcode: 7
39961500: global: CGRA: NOOP.Execute()
39961500: global: Distance is: 0
39961500: system.cpu: Ins: 6306136064, 177e00000 @ PE 15
39961500: global: Predictor bit: 0	 Opcode: 7
39961500: global: CGRA: NOOP.Execute()
39961500: global: Distance is: 0

************* MEM READ *************
Row: 0 - address: 632384 - data: 10
39961500: system.cpu: CGRA advanceTime complete.
39961500: system.cpu: *******IN ADVANCE PC******
39961500: system.cpu: build/ARM/cpu/atomiccgra/atomiccgra.cc,CGRA_advancePC,1763,PC:a4e70
39961500: system.cpu: Passed Complete Drain().
39961500: system.cpu: Make latency status=1.
39961500: system.cpu: Inside status idle.
39961500: system.cpu: Exiting schedule events
39961500: system.cpu: We are here after Execution
39962000: system.cpu: Inside CGRA Execution else statement.
39962000: system.cpu: Inside CGRA_Execution block.
39962000: system.cpu: 
CALL IN NOW CGRA_Execution.
39962000: global: 
******** DB INPUT2 ReadAddress0************
39962000: global: 
IN READ REGFILE R0 = 0
39962000: global: R0: 0	R1: 5	R2: 33	R3: 0

*********** CGRA EXECUTE - PRINT C ****************

39962000: system.cpu: Ins: 5335236608, 13e014000 @ PE 0
39962000: global: Predictor bit: 1	 Opcode: 3
39962000: global: 
Input1 = 0	Input2 = 0
39962000: global: 
******** LDUI IN THIS PE 0************
39962000: global: 
************** WE *****************
39962000: global: 
IN READ REGFILE R0 = 0
39962000: global: R0: 0	R1: 5	R2: 33	R3: 0
39962000: global: 
WRITE: REG NUMBER: 2 dist: 0
39962000: global: R0: 0	R1: 5	R2: 33	R3: 0
39962000: global: 
WRITE: FPREG NUMBER: 2 dist: 0
39962000: global: FPR0: 0	FPR1: 5	FPR2: 33	FPR3: 0
39962000: global: Writing output 33 to register 2
39962000: global: Distance is: 0
39962000: system.cpu: Ins: 6306136064, 177e00000 @ PE 1
39962000: global: Predictor bit: 0	 Opcode: 7
39962000: global: CGRA: NOOP.Execute()
39962000: global: Distance is: 0
39962000: system.cpu: Ins: 6306136064, 177e00000 @ PE 2
39962000: global: Predictor bit: 0	 Opcode: 7
39962000: global: CGRA: NOOP.Execute()
39962000: global: Distance is: 0
39962000: system.cpu: Ins: 6306136064, 177e00000 @ PE 3
39962000: global: Predictor bit: 0	 Opcode: 7
39962000: global: CGRA: NOOP.Execute()
39962000: global: Distance is: 0
39962000: system.cpu: Ins: 6306136064, 177e00000 @ PE 4
39962000: global: Predictor bit: 0	 Opcode: 7
39962000: global: CGRA: NOOP.Execute()
39962000: global: Distance is: 0
39962000: system.cpu: Ins: 6306136064, 177e00000 @ PE 5
39962000: global: Predictor bit: 0	 Opcode: 7
39962000: global: CGRA: NOOP.Execute()
39962000: global: Distance is: 0
39962000: system.cpu: Ins: 6306136064, 177e00000 @ PE 6
39962000: global: Predictor bit: 0	 Opcode: 7
39962000: global: CGRA: NOOP.Execute()
39962000: global: Distance is: 0
39962000: system.cpu: Ins: 6306136064, 177e00000 @ PE 7
39962000: global: Predictor bit: 0	 Opcode: 7
39962000: global: CGRA: NOOP.Execute()
39962000: global: Distance is: 0
39962000: system.cpu: Ins: 6306136064, 177e00000 @ PE 8
39962000: global: Predictor bit: 0	 Opcode: 7
39962000: global: CGRA: NOOP.Execute()
39962000: global: Distance is: 0
39962000: system.cpu: Ins: 6306136064, 177e00000 @ PE 9
39962000: global: Predictor bit: 0	 Opcode: 7
39962000: global: CGRA: NOOP.Execute()
39962000: global: Distance is: 0
39962000: system.cpu: Ins: 6306136064, 177e00000 @ PE 10
39962000: global: Predictor bit: 0	 Opcode: 7
39962000: global: CGRA: NOOP.Execute()
39962000: global: Distance is: 0
39962000: system.cpu: Ins: 6306136064, 177e00000 @ PE 11
39962000: global: Predictor bit: 0	 Opcode: 7
39962000: global: CGRA: NOOP.Execute()
39962000: global: Distance is: 0
39962000: system.cpu: Ins: 6306136064, 177e00000 @ PE 12
39962000: global: Predictor bit: 0	 Opcode: 7
39962000: global: CGRA: NOOP.Execute()
39962000: global: Distance is: 0
39962000: system.cpu: Ins: 6306136064, 177e00000 @ PE 13
39962000: global: Predictor bit: 0	 Opcode: 7
39962000: global: CGRA: NOOP.Execute()
39962000: global: Distance is: 0
39962000: system.cpu: Ins: 6306136064, 177e00000 @ PE 14
39962000: global: Predictor bit: 0	 Opcode: 7
39962000: global: CGRA: NOOP.Execute()
39962000: global: Distance is: 0
39962000: system.cpu: Ins: 6306136064, 177e00000 @ PE 15
39962000: global: Predictor bit: 0	 Opcode: 7
39962000: global: CGRA: NOOP.Execute()
39962000: global: Distance is: 0

************* MEM READ *************
Row: 0 - address: 632384 - data: 10
39962000: system.cpu: CGRA advanceTime complete.
39962000: system.cpu: *******IN ADVANCE PC******
39962000: system.cpu: build/ARM/cpu/atomiccgra/atomiccgra.cc,CGRA_advancePC,1763,PC:a4ef0
39962000: system.cpu: Passed Complete Drain().
39962000: system.cpu: Make latency status=1.
39962000: system.cpu: Inside status idle.
39962000: system.cpu: Exiting schedule events
39962000: system.cpu: We are here after Execution
39962500: system.cpu: Inside CGRA Execution else statement.
39962500: system.cpu: Inside CGRA_Execution block.
39962500: system.cpu: 
CALL IN NOW CGRA_Execution.
39962500: global: 
******** DB INPUT2 ReadAddress0************
39962500: global: 
IN READ REGFILE R0 = 0
39962500: global: R0: 0	R1: 5	R2: 33	R3: 0

*********** CGRA EXECUTE - PRINT C ****************

39962500: system.cpu: Ins: 4798398465, 11e01c001 @ PE 0
39962500: global: Predictor bit: 1	 Opcode: 1
39962500: global: 
Input1 = 1	Input2 = 0
39962500: global: 
******** LDI IN THIS PE 1************
39962500: global: 
************** WE *****************
39962500: global: 
WRITE: REG NUMBER: 3 dist: 0
39962500: global: R0: 0	R1: 5	R2: 33	R3: 1
39962500: global: 
WRITE: FPREG NUMBER: 3 dist: 0
39962500: global: FPR0: 0	FPR1: 5	FPR2: 33	FPR3: 1
39962500: global: Writing output 1 to register 3
39962500: global: Distance is: 0
39962500: system.cpu: Ins: 6306136064, 177e00000 @ PE 1
39962500: global: Predictor bit: 0	 Opcode: 7
39962500: global: CGRA: NOOP.Execute()
39962500: global: Distance is: 0
39962500: system.cpu: Ins: 6306136064, 177e00000 @ PE 2
39962500: global: Predictor bit: 0	 Opcode: 7
39962500: global: CGRA: NOOP.Execute()
39962500: global: Distance is: 0
39962500: system.cpu: Ins: 6306136064, 177e00000 @ PE 3
39962500: global: Predictor bit: 0	 Opcode: 7
39962500: global: CGRA: NOOP.Execute()
39962500: global: Distance is: 0
39962500: system.cpu: Ins: 6306136064, 177e00000 @ PE 4
39962500: global: Predictor bit: 0	 Opcode: 7
39962500: global: CGRA: NOOP.Execute()
39962500: global: Distance is: 0
39962500: system.cpu: Ins: 6306136064, 177e00000 @ PE 5
39962500: global: Predictor bit: 0	 Opcode: 7
39962500: global: CGRA: NOOP.Execute()
39962500: global: Distance is: 0
39962500: system.cpu: Ins: 6306136064, 177e00000 @ PE 6
39962500: global: Predictor bit: 0	 Opcode: 7
39962500: global: CGRA: NOOP.Execute()
39962500: global: Distance is: 0
39962500: system.cpu: Ins: 6306136064, 177e00000 @ PE 7
39962500: global: Predictor bit: 0	 Opcode: 7
39962500: global: CGRA: NOOP.Execute()
39962500: global: Distance is: 0
39962500: system.cpu: Ins: 6306136064, 177e00000 @ PE 8
39962500: global: Predictor bit: 0	 Opcode: 7
39962500: global: CGRA: NOOP.Execute()
39962500: global: Distance is: 0
39962500: system.cpu: Ins: 6306136064, 177e00000 @ PE 9
39962500: global: Predictor bit: 0	 Opcode: 7
39962500: global: CGRA: NOOP.Execute()
39962500: global: Distance is: 0
39962500: system.cpu: Ins: 6306136064, 177e00000 @ PE 10
39962500: global: Predictor bit: 0	 Opcode: 7
39962500: global: CGRA: NOOP.Execute()
39962500: global: Distance is: 0
39962500: system.cpu: Ins: 6306136064, 177e00000 @ PE 11
39962500: global: Predictor bit: 0	 Opcode: 7
39962500: global: CGRA: NOOP.Execute()
39962500: global: Distance is: 0
39962500: system.cpu: Ins: 6306136064, 177e00000 @ PE 12
39962500: global: Predictor bit: 0	 Opcode: 7
39962500: global: CGRA: NOOP.Execute()
39962500: global: Distance is: 0
39962500: system.cpu: Ins: 6306136064, 177e00000 @ PE 13
39962500: global: Predictor bit: 0	 Opcode: 7
39962500: global: CGRA: NOOP.Execute()
39962500: global: Distance is: 0
39962500: system.cpu: Ins: 6306136064, 177e00000 @ PE 14
39962500: global: Predictor bit: 0	 Opcode: 7
39962500: global: CGRA: NOOP.Execute()
39962500: global: Distance is: 0
39962500: system.cpu: Ins: 6306136064, 177e00000 @ PE 15
39962500: global: Predictor bit: 0	 Opcode: 7
39962500: global: CGRA: NOOP.Execute()
39962500: global: Distance is: 0

************* MEM READ *************
Row: 0 - address: 632384 - data: 10
39962500: system.cpu: CGRA advanceTime complete.
39962500: system.cpu: *******IN ADVANCE PC******
39962500: system.cpu: build/ARM/cpu/atomiccgra/atomiccgra.cc,CGRA_advancePC,1763,PC:a4f70
39962500: system.cpu: Passed Complete Drain().
39962500: system.cpu: Make latency status=1.
39962500: system.cpu: Inside status idle.
39962500: system.cpu: Exiting schedule events
39962500: system.cpu: We are here after Execution
39963000: system.cpu: Inside CGRA Execution else statement.
39963000: system.cpu: Inside CGRA_Execution block.
39963000: system.cpu: 
CALL IN NOW CGRA_Execution.
39963000: global: 
******** DB INPUT2 ReadAddress0************
39963000: global: 
IN READ REGFILE R0 = 0
39963000: global: R0: 0	R1: 5	R2: 33	R3: 1
39963000: global: 
******** DB INPUT1 ReadAddress0************
39963000: global: 
IN READ REGFILE R0 = 0
39963000: global: R0: 0	R1: 0	R2: 0	R3: 0
39963000: global: 
******** DB INPUT2 ReadAddress0************
39963000: global: 
IN READ REGFILE R0 = 0
39963000: global: R0: 0	R1: 0	R2: 0	R3: 0
39963000: global: 
******** DB INPUT1 ReadAddress0************
39963000: global: 
IN READ REGFILE R0 = 0
39963000: global: R0: 0	R1: 0	R2: 0	R3: 0
39963000: global: 
******** DB INPUT2 ReadAddress0************
39963000: global: 
IN READ REGFILE R0 = 0
39963000: global: R0: 0	R1: 0	R2: 0	R3: 0
39963000: global: 
******** DB INPUT1 ReadAddress0************
39963000: global: 
IN READ REGFILE R0 = 0
39963000: global: R0: 0	R1: 0	R2: 0	R3: 0
39963000: global: 
******** DB INPUT2 ReadAddress0************
39963000: global: 
IN READ REGFILE R0 = 0
39963000: global: R0: 0	R1: 0	R2: 0	R3: 0
39963000: global: 
******** DB INPUT1 ReadAddress0************
39963000: global: 
IN READ REGFILE R0 = 0
39963000: global: R0: 0	R1: 0	R2: 0	R3: 0
39963000: global: 
******** DB INPUT2 ReadAddress0************
39963000: global: 
IN READ REGFILE R0 = 0
39963000: global: R0: 0	R1: 0	R2: 0	R3: 0
39963000: global: 
******** DB INPUT1 ReadAddress0************
39963000: global: 
IN READ REGFILE R0 = 0
39963000: global: R0: 0	R1: 0	R2: 0	R3: 0
39963000: global: 
******** DB INPUT2 ReadAddress0************
39963000: global: 
IN READ REGFILE R0 = 0
39963000: global: R0: 0	R1: 0	R2: 0	R3: 0
39963000: global: 
******** DB INPUT1 ReadAddress0************
39963000: global: 
IN READ REGFILE R0 = 0
39963000: global: R0: 0	R1: 0	R2: 0	R3: 0
39963000: global: 
******** DB INPUT2 ReadAddress0************
39963000: global: 
IN READ REGFILE R0 = 0
39963000: global: R0: 0	R1: 0	R2: 0	R3: 0
39963000: global: 
******** DB INPUT1 ReadAddress0************
39963000: global: 
IN READ REGFILE R0 = 0
39963000: global: R0: 0	R1: 0	R2: 0	R3: 0
39963000: global: 
******** DB INPUT2 ReadAddress0************
39963000: global: 
IN READ REGFILE R0 = 0
39963000: global: R0: 0	R1: 0	R2: 0	R3: 0
39963000: global: 
******** DB INPUT1 ReadAddress0************
39963000: global: 
IN READ REGFILE R0 = 0
39963000: global: R0: 0	R1: 0	R2: 0	R3: 0
39963000: global: 
******** DB INPUT2 ReadAddress0************
39963000: global: 
IN READ REGFILE R0 = 0
39963000: global: R0: 0	R1: 0	R2: 0	R3: 0
39963000: global: 
******** DB INPUT1 ReadAddress0************
39963000: global: 
IN READ REGFILE R0 = 0
39963000: global: R0: 0	R1: 0	R2: 0	R3: 0
39963000: global: 
******** DB INPUT2 ReadAddress0************
39963000: global: 
IN READ REGFILE R0 = 0
39963000: global: R0: 0	R1: 0	R2: 0	R3: 0
39963000: global: 
******** DB INPUT1 ReadAddress0************
39963000: global: 
IN READ REGFILE R0 = 0
39963000: global: R0: 0	R1: 0	R2: 0	R3: 0
39963000: global: 
******** DB INPUT2 ReadAddress0************
39963000: global: 
IN READ REGFILE R0 = 0
39963000: global: R0: 0	R1: 0	R2: 0	R3: 0
39963000: global: 
******** DB INPUT1 ReadAddress0************
39963000: global: 
IN READ REGFILE R0 = 0
39963000: global: R0: 0	R1: 0	R2: 0	R3: 0
39963000: global: 
******** DB INPUT2 ReadAddress0************
39963000: global: 
IN READ REGFILE R0 = 0
39963000: global: R0: 0	R1: 0	R2: 0	R3: 0
39963000: global: 
******** DB INPUT1 ReadAddress0************
39963000: global: 
IN READ REGFILE R0 = 0
39963000: global: R0: 0	R1: 0	R2: 0	R3: 0
39963000: global: 
******** DB INPUT2 ReadAddress0************
39963000: global: 
IN READ REGFILE R0 = 0
39963000: global: R0: 0	R1: 0	R2: 0	R3: 0
39963000: global: 
******** DB INPUT1 ReadAddress0************
39963000: global: 
IN READ REGFILE R0 = 0
39963000: global: R0: 0	R1: 0	R2: 0	R3: 0
39963000: global: 
******** DB INPUT2 ReadAddress0************
39963000: global: 
IN READ REGFILE R0 = 0
39963000: global: R0: 0	R1: 0	R2: 0	R3: 0
39963000: global: 
******** DB INPUT1 ReadAddress0************
39963000: global: 
IN READ REGFILE R0 = 0
39963000: global: R0: 0	R1: 0	R2: 0	R3: 0
39963000: global: 
******** DB INPUT2 ReadAddress0************
39963000: global: 
IN READ REGFILE R0 = 0
39963000: global: R0: 0	R1: 0	R2: 0	R3: 0

*********** CGRA EXECUTE - PRINT C ****************

39963000: system.cpu: Ins: 5066833920, 12e01c000 @ PE 0
39963000: global: Predictor bit: 1	 Opcode: 2
39963000: global: 
Input1 = 0	Input2 = 0
39963000: global: 
******** LDMI IN THIS PE 0************
39963000: global: 
************** WE *****************
39963000: global: 
IN READ REGFILE R0 = 0
39963000: global: R0: 0	R1: 5	R2: 33	R3: 1
39963000: global: 
WRITE: REG NUMBER: 3 dist: 0
39963000: global: R0: 0	R1: 5	R2: 33	R3: 1
39963000: global: 
WRITE: FPREG NUMBER: 3 dist: 0
39963000: global: FPR0: 0	FPR1: 5	FPR2: 33	FPR3: 1
39963000: global: Writing output 1 to register 3
39963000: global: Distance is: 0
39963000: system.cpu: Ins: 6306136064, 177e00000 @ PE 1
39963000: global: Predictor bit: 0	 Opcode: 7
39963000: global: CGRA: NOOP.Execute()
39963000: global: Distance is: 0
39963000: system.cpu: Ins: 0, 0 @ PE 2
39963000: global: Predictor bit: 0	 Opcode: 0
39963000: global: 
Input1 = 0	Input2 = 0
39963000: global: 
******** SUM IN THIS PE 0************
39963000: global: Distance is: 0
39963000: system.cpu: Ins: 0, 0 @ PE 3
39963000: global: Predictor bit: 0	 Opcode: 0
39963000: global: 
Input1 = 0	Input2 = 0
39963000: global: 
******** SUM IN THIS PE 0************
39963000: global: Distance is: 0
39963000: system.cpu: Ins: 0, 0 @ PE 4
39963000: global: Predictor bit: 0	 Opcode: 0
39963000: global: 
Input1 = 0	Input2 = 0
39963000: global: 
******** SUM IN THIS PE 0************
39963000: global: Distance is: 0
39963000: system.cpu: Ins: 0, 0 @ PE 5
39963000: global: Predictor bit: 0	 Opcode: 0
39963000: global: 
Input1 = 0	Input2 = 0
39963000: global: 
******** SUM IN THIS PE 0************
39963000: global: Distance is: 0
39963000: system.cpu: Ins: 0, 0 @ PE 6
39963000: global: Predictor bit: 0	 Opcode: 0
39963000: global: 
Input1 = 0	Input2 = 0
39963000: global: 
******** SUM IN THIS PE 0************
39963000: global: Distance is: 0
39963000: system.cpu: Ins: 0, 0 @ PE 7
39963000: global: Predictor bit: 0	 Opcode: 0
39963000: global: 
Input1 = 0	Input2 = 0
39963000: global: 
******** SUM IN THIS PE 0************
39963000: global: Distance is: 0
39963000: system.cpu: Ins: 0, 0 @ PE 8
39963000: global: Predictor bit: 0	 Opcode: 0
39963000: global: 
Input1 = 0	Input2 = 0
39963000: global: 
******** SUM IN THIS PE 0************
39963000: global: Distance is: 0
39963000: system.cpu: Ins: 0, 0 @ PE 9
39963000: global: Predictor bit: 0	 Opcode: 0
39963000: global: 
Input1 = 0	Input2 = 0
39963000: global: 
******** SUM IN THIS PE 0************
39963000: global: Distance is: 0
39963000: system.cpu: Ins: 0, 0 @ PE 10
39963000: global: Predictor bit: 0	 Opcode: 0
39963000: global: 
Input1 = 0	Input2 = 0
39963000: global: 
******** SUM IN THIS PE 0************
39963000: global: Distance is: 0
39963000: system.cpu: Ins: 0, 0 @ PE 11
39963000: global: Predictor bit: 0	 Opcode: 0
39963000: global: 
Input1 = 0	Input2 = 0
39963000: global: 
******** SUM IN THIS PE 0************
39963000: global: Distance is: 0
39963000: system.cpu: Ins: 0, 0 @ PE 12
39963000: global: Predictor bit: 0	 Opcode: 0
39963000: global: 
Input1 = 0	Input2 = 0
39963000: global: 
******** SUM IN THIS PE 0************
39963000: global: Distance is: 0
39963000: system.cpu: Ins: 0, 0 @ PE 13
39963000: global: Predictor bit: 0	 Opcode: 0
39963000: global: 
Input1 = 0	Input2 = 0
39963000: global: 
******** SUM IN THIS PE 0************
39963000: global: Distance is: 0
39963000: system.cpu: Ins: 0, 0 @ PE 14
39963000: global: Predictor bit: 0	 Opcode: 0
39963000: global: 
Input1 = 0	Input2 = 0
39963000: global: 
******** SUM IN THIS PE 0************
39963000: global: Distance is: 0
39963000: system.cpu: Ins: 0, 0 @ PE 15
39963000: global: Predictor bit: 0	 Opcode: 0
39963000: global: 
Input1 = 0	Input2 = 0
39963000: global: 
******** SUM IN THIS PE 0************
39963000: global: Distance is: 0

************* MEM READ *************
Row: 0 - address: 632384 - data: 10
39963000: system.cpu: CGRA advanceTime complete.
39963000: system.cpu: *******IN ADVANCE PC******
39963000: system.cpu: build/ARM/cpu/atomiccgra/atomiccgra.cc,CGRA_advancePC,1763,PC:a4ff0
39963000: system.cpu: Passed Complete Drain().
39963000: system.cpu: Make latency status=1.
39963000: system.cpu: Inside status idle.
39963000: system.cpu: Exiting schedule events
39963000: system.cpu: We are here after Execution
[...]
39988500: system.cpu: Inside CGRA Execution else statement.
39988500: system.cpu: Inside CGRA_Execution block.
39988500: system.cpu: 
CALL IN NOW CGRA_Execution.
39988500: global: 
******** DB INPUT2 ReadAddress0************
39988500: global: 
IN READ REGFILE R0 = 10
39988500: global: R0: 10	R1: 632388	R2: 632388	R3: 1

*********** CGRA EXECUTE - PRINT C ****************

39988500: system.cpu: Ins: 7633633280, 1c7000000 @ PE 0
39988500: global: Predictor bit: 0	 Opcode: 12
39988500: global: 
Input1 = 9	Input2 = 10
39988500: global: 
******** EQUALS IN THIS PE 0************
39988500: global: 
COMPARE INSTRUCTION OUTPUT = 0
39988500: global: Distance is: 0
39988500: system.cpu: Ins: 4324327424, 101c00000 @ PE 1
39988500: global: Predictor bit: 0	 Opcode: 0
39988500: global: 
Input1 = 9	Input2 = 0
39988500: global: 
******** SUM IN THIS PE 9************
39988500: global: Distance is: 0
39988500: system.cpu: Ins: 5622472704, 14f202000 @ PE 2
39988500: global: Predictor bit: 1	 Opcode: 4
39988500: global: 
Input1 = 198	Input2 = 165	InputP = 0
39988500: global: 
******** Selection IN THIS PE 165************
39988500: global: Distance is: 0
39988500: system.cpu: Ins: 6306136064, 177e00000 @ PE 3
39988500: global: Predictor bit: 0	 Opcode: 7
39988500: global: CGRA: NOOP.Execute()
39988500: global: Distance is: 0
39988500: system.cpu: Ins: 6306136064, 177e00000 @ PE 4
39988500: global: Predictor bit: 0	 Opcode: 7
39988500: global: CGRA: NOOP.Execute()
39988500: global: Distance is: 0
39988500: system.cpu: Ins: 6306136064, 177e00000 @ PE 5
39988500: global: Predictor bit: 0	 Opcode: 7
39988500: global: CGRA: NOOP.Execute()
39988500: global: Distance is: 0
39988500: system.cpu: Ins: 6306136064, 177e00000 @ PE 6
39988500: global: Predictor bit: 0	 Opcode: 7
39988500: global: CGRA: NOOP.Execute()
39988500: global: Distance is: 0
39988500: system.cpu: Ins: 6306136064, 177e00000 @ PE 7
39988500: global: Predictor bit: 0	 Opcode: 7
39988500: global: CGRA: NOOP.Execute()
39988500: global: Distance is: 0
39988500: system.cpu: Ins: 6306136064, 177e00000 @ PE 8
39988500: global: Predictor bit: 0	 Opcode: 7
39988500: global: CGRA: NOOP.Execute()
39988500: global: Distance is: 0
39988500: system.cpu: Ins: 6306136064, 177e00000 @ PE 9
39988500: global: Predictor bit: 0	 Opcode: 7
39988500: global: CGRA: NOOP.Execute()
39988500: global: Distance is: 0
39988500: system.cpu: Ins: 6306136064, 177e00000 @ PE 10
39988500: global: Predictor bit: 0	 Opcode: 7
39988500: global: CGRA: NOOP.Execute()
39988500: global: Distance is: 0
39988500: system.cpu: Ins: 6306136064, 177e00000 @ PE 11
39988500: global: Predictor bit: 0	 Opcode: 7
39988500: global: CGRA: NOOP.Execute()
39988500: global: Distance is: 0
39988500: system.cpu: Ins: 6306136064, 177e00000 @ PE 12
39988500: global: Predictor bit: 0	 Opcode: 7
39988500: global: CGRA: NOOP.Execute()
39988500: global: Distance is: 0
39988500: system.cpu: Ins: 6306136064, 177e00000 @ PE 13
39988500: global: Predictor bit: 0	 Opcode: 7
39988500: global: CGRA: NOOP.Execute()
39988500: global: Distance is: 0
39988500: system.cpu: Ins: 6306136064, 177e00000 @ PE 14
39988500: global: Predictor bit: 0	 Opcode: 7
39988500: global: CGRA: NOOP.Execute()
39988500: global: Distance is: 0
39988500: system.cpu: Ins: 6306136064, 177e00000 @ PE 15
39988500: global: Predictor bit: 0	 Opcode: 7
39988500: global: CGRA: NOOP.Execute()
39988500: global: Distance is: 0

************* MEM READ *************
Row: 0 - address: 632384 - data: 10
39988500: system.cpu: CGRA advanceTime complete.
39988500: system.cpu: *******IN ADVANCE PC******
39988500: system.cpu: build/ARM/cpu/atomiccgra/atomiccgra.cc,CGRA_advancePC,1763,PC:a5ef8
39988500: system.cpu: Passed Complete Drain().
39988500: system.cpu: Make latency status=1.
39988500: system.cpu: Inside status idle.
39988500: system.cpu: Exiting schedule events
39988500: system.cpu: We are here after Execution
39989000: system.cpu: Inside CGRA Execution else statement.
39989000: system.cpu: Inside CGRA_Execution block.
39989000: system.cpu: 
CALL IN NOW CGRA_Execution.
39989000: global: 
IN READ REGFILE R0 = 10
39989000: global: R0: 10	R1: 632388	R2: 632388	R3: 1
39989000: global: 
IN READ REGFILE R0 = 0
39989000: global: R0: 0	R1: 0	R2: 0	R3: 0

*********** CGRA EXECUTE - PRINT C ****************

39989000: system.cpu: Ins: 4743757824, 11ac00000 @ PE 0
39989000: global: Predictor bit: 1	 Opcode: 1
39989000: global: 
Input1 = 9	Input2 = 0
39989000: global: 
******** LDI IN THIS PE 9************
39989000: global: Distance is: 0
39989000: system.cpu: Ins: 4743757824, 11ac00000 @ PE 1
39989000: global: Predictor bit: 1	 Opcode: 1
39989000: global: 
Input1 = 165	Input2 = 0
39989000: global: 
******** LDI IN THIS PE 165************
39989000: global: Distance is: 0
39989000: system.cpu: Ins: 6306136064, 177e00000 @ PE 2
39989000: global: Predictor bit: 0	 Opcode: 7
39989000: global: CGRA: NOOP.Execute()
39989000: global: Distance is: 0
39989000: system.cpu: Ins: 6306136064, 177e00000 @ PE 3
39989000: global: Predictor bit: 0	 Opcode: 7
39989000: global: CGRA: NOOP.Execute()
39989000: global: Distance is: 0
39989000: system.cpu: Ins: 6306136064, 177e00000 @ PE 4
39989000: global: Predictor bit: 0	 Opcode: 7
39989000: global: CGRA: NOOP.Execute()
39989000: global: Distance is: 0
39989000: system.cpu: Ins: 6306136064, 177e00000 @ PE 5
39989000: global: Predictor bit: 0	 Opcode: 7
39989000: global: CGRA: NOOP.Execute()
39989000: global: Distance is: 0
39989000: system.cpu: Ins: 6306136064, 177e00000 @ PE 6
39989000: global: Predictor bit: 0	 Opcode: 7
39989000: global: CGRA: NOOP.Execute()
39989000: global: Distance is: 0
39989000: system.cpu: Ins: 6306136064, 177e00000 @ PE 7
39989000: global: Predictor bit: 0	 Opcode: 7
39989000: global: CGRA: NOOP.Execute()
39989000: global: Distance is: 0
39989000: system.cpu: Ins: 6306136064, 177e00000 @ PE 8
39989000: global: Predictor bit: 0	 Opcode: 7
39989000: global: CGRA: NOOP.Execute()
39989000: global: Distance is: 0
39989000: system.cpu: Ins: 6306136064, 177e00000 @ PE 9
39989000: global: Predictor bit: 0	 Opcode: 7
39989000: global: CGRA: NOOP.Execute()
39989000: global: Distance is: 0
39989000: system.cpu: Ins: 6306136064, 177e00000 @ PE 10
39989000: global: Predictor bit: 0	 Opcode: 7
39989000: global: CGRA: NOOP.Execute()
39989000: global: Distance is: 0
39989000: system.cpu: Ins: 6306136064, 177e00000 @ PE 11
39989000: global: Predictor bit: 0	 Opcode: 7
39989000: global: CGRA: NOOP.Execute()
39989000: global: Distance is: 0
39989000: system.cpu: Ins: 6306136064, 177e00000 @ PE 12
39989000: global: Predictor bit: 0	 Opcode: 7
39989000: global: CGRA: NOOP.Execute()
39989000: global: Distance is: 0
39989000: system.cpu: Ins: 6306136064, 177e00000 @ PE 13
39989000: global: Predictor bit: 0	 Opcode: 7
39989000: global: CGRA: NOOP.Execute()
39989000: global: Distance is: 0
39989000: system.cpu: Ins: 6306136064, 177e00000 @ PE 14
39989000: global: Predictor bit: 0	 Opcode: 7
39989000: global: CGRA: NOOP.Execute()
39989000: global: Distance is: 0
39989000: system.cpu: Ins: 6306136064, 177e00000 @ PE 15
39989000: global: Predictor bit: 0	 Opcode: 7
39989000: global: CGRA: NOOP.Execute()
39989000: global: Distance is: 0

************* MEM READ *************
Row: 0 - address: 632384 - data: 10
39989000: system.cpu: CGRA advanceTime complete.
39989000: system.cpu: *******IN ADVANCE PC******
39989000: system.cpu: build/ARM/cpu/atomiccgra/atomiccgra.cc,CGRA_advancePC,1763,PC:a5f78
39989000: system.cpu: 
KERNEL->EPILOG
39989000: system.cpu: Passed Complete Drain().
39989000: system.cpu: Make latency status=1.
39989000: system.cpu: Inside status idle.
39989000: system.cpu: Exiting schedule events
39989000: system.cpu: We are here after Execution
39989500: system.cpu: Inside CGRA Execution else statement.
39989500: system.cpu: Inside CGRA_Execution block.
39989500: system.cpu: 
CALL IN NOW CGRA_Execution.

*********** CGRA EXECUTE - PRINT C ****************

39989500: system.cpu: Ins: 4424990721, 107c00001 @ PE 0
39989500: global: Predictor bit: 0	 Opcode: 0
39989500: global: 
Input1 = 9	Input2 = 1
39989500: global: 
******** SUM IN THIS PE 10************
39989500: global: Distance is: 0
39989500: system.cpu: Ins: 4424990720, 107c00000 @ PE 1
39989500: global: Predictor bit: 0	 Opcode: 0
39989500: global: 
Input1 = 165	Input2 = 0
39989500: global: 
******** SUM IN THIS PE 165************
39989500: global: Distance is: 0
39989500: system.cpu: Ins: 4324327457, 101c00021 @ PE 2
39989500: global: Predictor bit: 0	 Opcode: 0
39989500: global: 
Input1 = 165	Input2 = 33
39989500: global: 
******** SUM IN THIS PE 198************
39989500: global: Distance is: 0
39989500: system.cpu: Ins: 8367636485, 1f2c00005 @ PE 3
39989500: global: Predictor bit: 0	 Opcode: 15
39989500: global: 
Input1 = 9	Input2 = 5
39989500: global: 
******** Less Than IN THIS PE 0************
39989500: global: 
COMPARE INSTRUCTION OUTPUT = 0
39989500: global: Distance is: 0
39989500: system.cpu: Ins: 6306136064, 177e00000 @ PE 4
39989500: global: Predictor bit: 0	 Opcode: 7
39989500: global: CGRA: NOOP.Execute()
39989500: global: Distance is: 0
39989500: system.cpu: Ins: 6306136064, 177e00000 @ PE 5
39989500: global: Predictor bit: 0	 Opcode: 7
39989500: global: CGRA: NOOP.Execute()
39989500: global: Distance is: 0
39989500: system.cpu: Ins: 6306136064, 177e00000 @ PE 6
39989500: global: Predictor bit: 0	 Opcode: 7
39989500: global: CGRA: NOOP.Execute()
39989500: global: Distance is: 0
39989500: system.cpu: Ins: 6306136064, 177e00000 @ PE 7
39989500: global: Predictor bit: 0	 Opcode: 7
39989500: global: CGRA: NOOP.Execute()
39989500: global: Distance is: 0
39989500: system.cpu: Ins: 6306136064, 177e00000 @ PE 8
39989500: global: Predictor bit: 0	 Opcode: 7
39989500: global: CGRA: NOOP.Execute()
39989500: global: Distance is: 0
39989500: system.cpu: Ins: 6306136064, 177e00000 @ PE 9
39989500: global: Predictor bit: 0	 Opcode: 7
39989500: global: CGRA: NOOP.Execute()
39989500: global: Distance is: 0
39989500: system.cpu: Ins: 6306136064, 177e00000 @ PE 10
39989500: global: Predictor bit: 0	 Opcode: 7
39989500: global: CGRA: NOOP.Execute()
39989500: global: Distance is: 0
39989500: system.cpu: Ins: 6306136064, 177e00000 @ PE 11
39989500: global: Predictor bit: 0	 Opcode: 7
39989500: global: CGRA: NOOP.Execute()
39989500: global: Distance is: 0
39989500: system.cpu: Ins: 6306136064, 177e00000 @ PE 12
39989500: global: Predictor bit: 0	 Opcode: 7
39989500: global: CGRA: NOOP.Execute()
39989500: global: Distance is: 0
39989500: system.cpu: Ins: 6306136064, 177e00000 @ PE 13
39989500: global: Predictor bit: 0	 Opcode: 7
39989500: global: CGRA: NOOP.Execute()
39989500: global: Distance is: 0
39989500: system.cpu: Ins: 6306136064, 177e00000 @ PE 14
39989500: global: Predictor bit: 0	 Opcode: 7
39989500: global: CGRA: NOOP.Execute()
39989500: global: Distance is: 0
39989500: system.cpu: Ins: 6306136064, 177e00000 @ PE 15
39989500: global: Predictor bit: 0	 Opcode: 7
39989500: global: CGRA: NOOP.Execute()
39989500: global: Distance is: 0

************* MEM READ *************
Row: 0 - address: 632384 - data: 10
39989500: system.cpu: CGRA advanceTime complete.
39989500: system.cpu: *******IN ADVANCE PC******
39989500: system.cpu: build/ARM/cpu/atomiccgra/atomiccgra.cc,CGRA_advancePC,1763,PC:a4668
39989500: system.cpu: Passed Complete Drain().
39989500: system.cpu: Make latency status=1.
39989500: system.cpu: Inside status idle.
39989500: system.cpu: Exiting schedule events
39989500: system.cpu: We are here after Execution
39990000: system.cpu: Inside CGRA Execution else statement.
39990000: system.cpu: Inside CGRA_Execution block.
39990000: system.cpu: 
CALL IN NOW CGRA_Execution.
39990000: global: 
******** DB INPUT2 ReadAddress0************
39990000: global: 
IN READ REGFILE R0 = 10
39990000: global: R0: 10	R1: 632388	R2: 632388	R3: 1

*********** CGRA EXECUTE - PRINT C ****************

39990000: system.cpu: Ins: 7633633280, 1c7000000 @ PE 0
39990000: global: Predictor bit: 0	 Opcode: 12
39990000: global: 
Input1 = 10	Input2 = 10
39990000: global: 
******** EQUALS IN THIS PE 1************
39990000: global: 
COMPARE INSTRUCTION OUTPUT = 1
39990000: global: Distance is: 0
39990000: system.cpu: Ins: 4324327424, 101c00000 @ PE 1
39990000: global: Predictor bit: 0	 Opcode: 0
39990000: global: 
Input1 = 10	Input2 = 0
39990000: global: 
******** SUM IN THIS PE 10************
39990000: global: Distance is: 0
39990000: system.cpu: Ins: 5622472704, 14f202000 @ PE 2
39990000: global: Predictor bit: 1	 Opcode: 4
39990000: global: 
Input1 = 198	Input2 = 165	InputP = 0
39990000: global: 
******** Selection IN THIS PE 165************
39990000: global: Distance is: 0
39990000: system.cpu: Ins: 6306136064, 177e00000 @ PE 3
39990000: global: Predictor bit: 0	 Opcode: 7
39990000: global: CGRA: NOOP.Execute()
39990000: global: Distance is: 0
39990000: system.cpu: Ins: 6306136064, 177e00000 @ PE 4
39990000: global: Predictor bit: 0	 Opcode: 7
39990000: global: CGRA: NOOP.Execute()
39990000: global: Distance is: 0
39990000: system.cpu: Ins: 6306136064, 177e00000 @ PE 5
39990000: global: Predictor bit: 0	 Opcode: 7
39990000: global: CGRA: NOOP.Execute()
39990000: global: Distance is: 0
39990000: system.cpu: Ins: 6306136064, 177e00000 @ PE 6
39990000: global: Predictor bit: 0	 Opcode: 7
39990000: global: CGRA: NOOP.Execute()
39990000: global: Distance is: 0
39990000: system.cpu: Ins: 6306136064, 177e00000 @ PE 7
39990000: global: Predictor bit: 0	 Opcode: 7
39990000: global: CGRA: NOOP.Execute()
39990000: global: Distance is: 0
39990000: system.cpu: Ins: 6306136064, 177e00000 @ PE 8
39990000: global: Predictor bit: 0	 Opcode: 7
39990000: global: CGRA: NOOP.Execute()
39990000: global: Distance is: 0
39990000: system.cpu: Ins: 6306136064, 177e00000 @ PE 9
39990000: global: Predictor bit: 0	 Opcode: 7
39990000: global: CGRA: NOOP.Execute()
39990000: global: Distance is: 0
39990000: system.cpu: Ins: 6306136064, 177e00000 @ PE 10
39990000: global: Predictor bit: 0	 Opcode: 7
39990000: global: CGRA: NOOP.Execute()
39990000: global: Distance is: 0
39990000: system.cpu: Ins: 6306136064, 177e00000 @ PE 11
39990000: global: Predictor bit: 0	 Opcode: 7
39990000: global: CGRA: NOOP.Execute()
39990000: global: Distance is: 0
39990000: system.cpu: Ins: 6306136064, 177e00000 @ PE 12
39990000: global: Predictor bit: 0	 Opcode: 7
39990000: global: CGRA: NOOP.Execute()
39990000: global: Distance is: 0
39990000: system.cpu: Ins: 6306136064, 177e00000 @ PE 13
39990000: global: Predictor bit: 0	 Opcode: 7
39990000: global: CGRA: NOOP.Execute()
39990000: global: Distance is: 0
39990000: system.cpu: Ins: 6306136064, 177e00000 @ PE 14
39990000: global: Predictor bit: 0	 Opcode: 7
39990000: global: CGRA: NOOP.Execute()
39990000: global: Distance is: 0
39990000: system.cpu: Ins: 6306136064, 177e00000 @ PE 15
39990000: global: Predictor bit: 0	 Opcode: 7
39990000: global: CGRA: NOOP.Execute()
39990000: global: Distance is: 0

************* MEM READ *************
Row: 0 - address: 632384 - data: 10
39990000: system.cpu: CGRA advanceTime complete.
39990000: system.cpu: *******IN ADVANCE PC******
39990000: system.cpu: build/ARM/cpu/atomiccgra/atomiccgra.cc,CGRA_advancePC,1763,PC:a46e8
39990000: system.cpu: Passed Complete Drain().
39990000: system.cpu: Make latency status=1.
39990000: system.cpu: Inside status idle.
39990000: system.cpu: Exiting schedule events
39990000: system.cpu: We are here after Execution
39990500: system.cpu: Inside CGRA Execution else statement.
39990500: system.cpu: Inside CGRA_Execution block.
39990500: system.cpu: 
CALL IN NOW CGRA_Execution.
39990500: global: 
******** DB INPUT1 ReadAddress2************
39990500: global: 
IN READ REGFILE R0 = 10
39990500: global: R0: 10	R1: 632388	R2: 632388	R3: 1

*********** CGRA EXECUTE - PRINT C ****************

39990500: system.cpu: Ins: 6053437444, 168d02004 @ PE 0
39990500: global: Predictor bit: 1	 Opcode: 6
39990500: global: 
Input1 = 632388	Input2 = 4
39990500: global: 
******** ADDRESS GENERATED IN THIS PE 632388************
39990500: global: 
*********Setting Address 9a644 ******
39990500: global: Distance is: 0
39990500: system.cpu: Ins: 6306136064, 177e00000 @ PE 1
39990500: global: Predictor bit: 0	 Opcode: 7
39990500: global: CGRA: NOOP.Execute()
39990500: global: Distance is: 0
39990500: system.cpu: Ins: 4424994816, 107c01000 @ PE 2
39990500: global: Predictor bit: 0	 Opcode: 0
39990500: global: 
Input1 = 165	Input2 = 0
39990500: global: 
******** SUM IN THIS PE 165************
39990500: global: 
******** DB Output 165************
39990500: global: Distance is: 0
39990500: system.cpu: Ins: 6306136064, 177e00000 @ PE 3
39990500: global: Predictor bit: 0	 Opcode: 7
39990500: global: CGRA: NOOP.Execute()
39990500: global: Distance is: 0
39990500: system.cpu: Ins: 6306136064, 177e00000 @ PE 4
39990500: global: Predictor bit: 0	 Opcode: 7
39990500: global: CGRA: NOOP.Execute()
39990500: global: Distance is: 0
39990500: system.cpu: Ins: 6306136064, 177e00000 @ PE 5
39990500: global: Predictor bit: 0	 Opcode: 7
39990500: global: CGRA: NOOP.Execute()
39990500: global: Distance is: 0
39990500: system.cpu: Ins: 6306136064, 177e00000 @ PE 6
39990500: global: Predictor bit: 0	 Opcode: 7
39990500: global: CGRA: NOOP.Execute()
39990500: global: Distance is: 0
39990500: system.cpu: Ins: 6306136064, 177e00000 @ PE 7
39990500: global: Predictor bit: 0	 Opcode: 7
39990500: global: CGRA: NOOP.Execute()
39990500: global: Distance is: 0
39990500: system.cpu: Ins: 6306136064, 177e00000 @ PE 8
39990500: global: Predictor bit: 0	 Opcode: 7
39990500: global: CGRA: NOOP.Execute()
39990500: global: Distance is: 0
39990500: system.cpu: Ins: 6306136064, 177e00000 @ PE 9
39990500: global: Predictor bit: 0	 Opcode: 7
39990500: global: CGRA: NOOP.Execute()
39990500: global: Distance is: 0
39990500: system.cpu: Ins: 6306136064, 177e00000 @ PE 10
39990500: global: Predictor bit: 0	 Opcode: 7
39990500: global: CGRA: NOOP.Execute()
39990500: global: Distance is: 0
39990500: system.cpu: Ins: 6306136064, 177e00000 @ PE 11
39990500: global: Predictor bit: 0	 Opcode: 7
39990500: global: CGRA: NOOP.Execute()
39990500: global: Distance is: 0
39990500: system.cpu: Ins: 6306136064, 177e00000 @ PE 12
39990500: global: Predictor bit: 0	 Opcode: 7
39990500: global: CGRA: NOOP.Execute()
39990500: global: Distance is: 0
39990500: system.cpu: Ins: 6306136064, 177e00000 @ PE 13
39990500: global: Predictor bit: 0	 Opcode: 7
39990500: global: CGRA: NOOP.Execute()
39990500: global: Distance is: 0
39990500: system.cpu: Ins: 6306136064, 177e00000 @ PE 14
39990500: global: Predictor bit: 0	 Opcode: 7
39990500: global: CGRA: NOOP.Execute()
39990500: global: Distance is: 0
39990500: system.cpu: Ins: 6306136064, 177e00000 @ PE 15
39990500: global: Predictor bit: 0	 Opcode: 7
39990500: global: CGRA: NOOP.Execute()
39990500: global: Distance is: 0
39990500: system.cpu: In Memwrite with membus: 1
39990500: system.cpu: In writing INT 165	 to address:9a644	 -- &Data: 0x5638f9802620	 and uint: 
39990500: system.cpu: CGRA advanceTime complete.
39990500: system.cpu: *******IN ADVANCE PC******
39990500: system.cpu: build/ARM/cpu/atomiccgra/atomiccgra.cc,CGRA_advancePC,1763,PC:a4768
39990500: system.cpu: Passed Complete Drain().
39990500: system.cpu: Make latency status=1.
39990500: system.cpu: Inside status idle.
39990500: system.cpu: Exiting schedule events
39990500: system.cpu: We are here after Execution
39991000: system.cpu: Inside CGRA Execution else statement.
39991000: system.cpu: ************************PREPARING TO MOVE TO CPU************
39991000: system.cpu: newPC=673640, II=3, EPILog=3, Prolog=45, Len=0
39991000: system.cpu: **********************CGRA Execution is over**********************
39991000: system.cpu: ******REG R11= 16*********
39991000: system.cpu: AFTER COMPLETETION PC: 10e08
iterations:10	, c:165, result:10

deleting cgra
Exiting @ tick 42260000 because exiting with last active thread context
