/home/local/ASUAD/quoclon1/publish_ccf/benchmarks/factorial
6
Simulation for CGRA for 4 x 4 with 4 registers per PE
CPU frequency @ 2GHz
CGRA frequency @ 0.7GHz
CGRA4x4R4torus
Global frequency set at 1000000000000 ticks per second
warn: DRAM device capacity (8192 Mbytes) does not match the address range assigned (512 Mbytes)
0: system.remote_gdb: listening for remote gdb on port 7000
gem5 Simulator System.  http://gem5.org
gem5 is copyrighted software; use the --copyright option for details.

gem5 version 20.1.0.4
gem5 compiled Aug 20 2021 18:45:51
gem5 started Aug 24 2021 13:07:57
gem5 executing on en4181851l, pid 3123526
command line: /home/local/ASUAD/quoclon1/publish_ccf/gem5/build/ARM/gem5.opt --debug-flags=CGRA_Detailed,CGRA_Execute /home/local/ASUAD/quoclon1/publish_ccf/gem5/configs/example/se.py -n 1 --cpu-type CGRA4x4R4torus -c ./factorial -o 6

**** REAL SIMULATION ****
warn: membus.slave is deprecated. `slave` is now called `cpu_side_ports`
warn: membus.slave is deprecated. `slave` is now called `cpu_side_ports`
warn: membus.slave is deprecated. `slave` is now called `cpu_side_ports`
warn: membus.slave is deprecated. `slave` is now called `cpu_side_ports`
warn: membus.slave is deprecated. `slave` is now called `cpu_side_ports`
warn: membus.master is deprecated. `master` is now called `mem_side_ports`
warn: No dot file generated. Please install pydot to generate the dot file and pdf.
info: Entering event queue @ 0.  Starting simulation...
info: Increasing stack size by one page.
warn: ignoring syscall mprotect(...)
createCGRA
checkTotalLoops
from cgra.c Initialize Parameters

**********EPISIZE 64*********

**********PROSIZE 768*********

**********KERNSIZE 64*********

******SIZE OF UNSIGNED LONG4*****

******SIZE OF UNSIGNED LONG LONG8*****

*******************before while loop**************

************XDIM and YDim are 4, 4
Loop Count: -2
From FILE: PROLOGPC= a4870, EPILOGPC=a4668,  KernelPC=a6078
Main thread calling CGRA thread...


accelerateOnCGRA
configureCGRA

loopno = 1
Core will execute loop 1 on CGRA


runOnCGRA
39994000: system.cpu: CGRA PARAMETERS: PROLOG= 48, EPILOG=4, II=4, KernelCounter=3
39994000: system.cpu: CGRA PARAMETERS: PROLOGPC= a4870, EPILOGPC=a4668,  KernelPC=a6078
39994500: system.cpu: Inside CGRA Execution else statement.
39994500: system.cpu: Inside CGRA_Execution block.
39994500: system.cpu: 
CALL IN NOW CGRA_Execution.
39994500: system.cpu: 

 ~~~~~~ CGRA_Execution @ numCycles = 1 ~~~~~~~
39994500: global: 
******** DB INPUT2 ReadAddress = 0************
39994500: global: 
******** DB INPUT2 ReadAddress = 0************
39994500: global: 
******** DB INPUT2 ReadAddress = 0************
39994500: global: 
******** DB INPUT2 ReadAddress = 0************
39994500: global: 
******** DB INPUT2 ReadAddress = 0************
39994500: global: 
******** DB INPUT2 ReadAddress = 0************
39994500: global: 
******** DB INPUT2 ReadAddress = 0************
39994500: global: 
******** DB INPUT2 ReadAddress = 0************
39994500: global: 
******** DB INPUT2 ReadAddress = 0************
39994500: global: 
******** DB INPUT2 ReadAddress = 0************
39994500: global: 
******** DB INPUT2 ReadAddress = 0************
39994500: global: 
******** DB INPUT2 ReadAddress = 0************
39994500: global: 
******** DB INPUT2 ReadAddress = 0************
39994500: global: 
******** DB INPUT2 ReadAddress = 0************
39994500: global: 
******** DB INPUT2 ReadAddress = 0************
39994500: global: 
******** DB INPUT2 ReadAddress = 0************
39994500: system.cpu: Ins: 4529864706, 10e004002 @ PE 0
39994500: global: Predictor bit: 1	 Opcode: 0
39994500: global: 
Input1 = 2	Input2 = 0
39994500: global: 
******** Setting Configuration as 2************
39994500: global: 
************** WE *****************
39994500: global: Distance is: 0
39994500: system.cpu: Ins: 4529864705, 10e004001 @ PE 1
39994500: global: Predictor bit: 1	 Opcode: 0
39994500: global: 
Input1 = 1	Input2 = 0
39994500: global: 
******** Setting Configuration as 1************
39994500: global: 
************** WE *****************
39994500: global: Distance is: 0
39994500: system.cpu: Ins: 4529864704, 10e004000 @ PE 2
39994500: global: Predictor bit: 1	 Opcode: 0
39994500: global: 
Input1 = 0	Input2 = 0
39994500: global: 
******** Setting Configuration as 0************
39994500: global: 
************** WE *****************
39994500: global: Distance is: 0
39994500: system.cpu: Ins: 4529864704, 10e004000 @ PE 3
39994500: global: Predictor bit: 1	 Opcode: 0
39994500: global: 
Input1 = 0	Input2 = 0
39994500: global: 
******** Setting Configuration as 0************
39994500: global: 
************** WE *****************
39994500: global: Distance is: 0
39994500: system.cpu: Ins: 4529864704, 10e004000 @ PE 4
39994500: global: Predictor bit: 1	 Opcode: 0
39994500: global: 
Input1 = 0	Input2 = 0
39994500: global: 
******** Setting Configuration as 0************
39994500: global: 
************** WE *****************
39994500: global: Distance is: 0
39994500: system.cpu: Ins: 4529864704, 10e004000 @ PE 5
39994500: global: Predictor bit: 1	 Opcode: 0
39994500: global: 
Input1 = 0	Input2 = 0
39994500: global: 
******** Setting Configuration as 0************
39994500: global: 
************** WE *****************
39994500: global: Distance is: 0
39994500: system.cpu: Ins: 4529864704, 10e004000 @ PE 6
39994500: global: Predictor bit: 1	 Opcode: 0
39994500: global: 
Input1 = 0	Input2 = 0
39994500: global: 
******** Setting Configuration as 0************
39994500: global: 
************** WE *****************
39994500: global: Distance is: 0
39994500: system.cpu: Ins: 4529864704, 10e004000 @ PE 7
39994500: global: Predictor bit: 1	 Opcode: 0
39994500: global: 
Input1 = 0	Input2 = 0
39994500: global: 
******** Setting Configuration as 0************
39994500: global: 
************** WE *****************
39994500: global: Distance is: 0
39994500: system.cpu: Ins: 4529864704, 10e004000 @ PE 8
39994500: global: Predictor bit: 1	 Opcode: 0
39994500: global: 
Input1 = 0	Input2 = 0
39994500: global: 
******** Setting Configuration as 0************
39994500: global: 
************** WE *****************
39994500: global: Distance is: 0
39994500: system.cpu: Ins: 4529864704, 10e004000 @ PE 9
39994500: global: Predictor bit: 1	 Opcode: 0
39994500: global: 
Input1 = 0	Input2 = 0
39994500: global: 
******** Setting Configuration as 0************
39994500: global: 
************** WE *****************
39994500: global: Distance is: 0
39994500: system.cpu: Ins: 4529864704, 10e004000 @ PE 10
39994500: global: Predictor bit: 1	 Opcode: 0
39994500: global: 
Input1 = 0	Input2 = 0
39994500: global: 
******** Setting Configuration as 0************
39994500: global: 
************** WE *****************
39994500: global: Distance is: 0
39994500: system.cpu: Ins: 4529864704, 10e004000 @ PE 11
39994500: global: Predictor bit: 1	 Opcode: 0
39994500: global: 
Input1 = 0	Input2 = 0
39994500: global: 
******** Setting Configuration as 0************
39994500: global: 
************** WE *****************
39994500: global: Distance is: 0
39994500: system.cpu: Ins: 4529864704, 10e004000 @ PE 12
39994500: global: Predictor bit: 1	 Opcode: 0
39994500: global: 
Input1 = 0	Input2 = 0
39994500: global: 
******** Setting Configuration as 0************
39994500: global: 
************** WE *****************
39994500: global: Distance is: 0
39994500: system.cpu: Ins: 4529864704, 10e004000 @ PE 13
39994500: global: Predictor bit: 1	 Opcode: 0
39994500: global: 
Input1 = 0	Input2 = 0
39994500: global: 
******** Setting Configuration as 0************
39994500: global: 
************** WE *****************
39994500: global: Distance is: 0
39994500: system.cpu: Ins: 4529864704, 10e004000 @ PE 14
39994500: global: Predictor bit: 1	 Opcode: 0
39994500: global: 
Input1 = 0	Input2 = 0
39994500: global: 
******** Setting Configuration as 0************
39994500: global: 
************** WE *****************
39994500: global: Distance is: 0
39994500: system.cpu: Ins: 4529864704, 10e004000 @ PE 15
39994500: global: Predictor bit: 1	 Opcode: 0
39994500: global: 
Input1 = 0	Input2 = 0
39994500: global: 
******** Setting Configuration as 0************
39994500: global: 
************** WE *****************
39994500: global: Distance is: 0
39994500: system.cpu: CGRA advanceTime complete.
39994500: system.cpu: *******IN ADVANCE PC******
39994500: system.cpu: build/ARM/cpu/atomiccgra/atomiccgra.cc,CGRA_advancePC,1759,PC:a4870
39994500: system.cpu: Passed Complete Drain().
39994500: system.cpu: Make latency status=1.
39994500: system.cpu: Inside status idle.
39994500: system.cpu: Exiting schedule events
39994500: system.cpu: We are here after Execution
39995000: system.cpu: Inside CGRA Execution else statement.
39995000: system.cpu: Inside CGRA_Execution block.
39995000: system.cpu: 
CALL IN NOW CGRA_Execution.
39995000: system.cpu: 

 ~~~~~~ CGRA_Execution @ numCycles = 3 ~~~~~~~
39995000: global: 
******** DB INPUT2 ReadAddress = 0************
39995000: global: 
READ: REG NUMBER: 0 dist: 0
39995000: global: Rotating REGS data: 0	REG: 0
39995000: global: 
******** DB INPUT2 ReadAddress = 0************
39995000: global: 
READ: REG NUMBER: 0 dist: 0
39995000: global: Rotating REGS data: 0	REG: 0
39995000: system.cpu: Ins: 4798367296, 11e014640 @ PE 0
39995000: global: Predictor bit: 1	 Opcode: 1
39995000: global: 
Input1 = 1600	Input2 = 0
39995000: global: 
******** LDI IN THIS PE 1600************
39995000: global: 
************** WE *****************
39995000: global: 
WRITE: REG NUMBER: 2 dist: 0
39995000: global: R0: 0	R1: 0	R2: 1600	R3: 0
39995000: global: 
WRITE: FPREG NUMBER: 2 dist: 0
39995000: global: FPR0: 0	FPR1: 0	FPR2: 1600	FPR3: 0
39995000: global: Writing output 1600 to register 2
39995000: global: Distance is: 0
39995000: system.cpu: Ins: 4798334736, 11e00c710 @ PE 1
39995000: global: Predictor bit: 1	 Opcode: 1
39995000: global: 
Input1 = 1808	Input2 = 0
39995000: global: 
******** LDI IN THIS PE 1808************
39995000: global: 
************** WE *****************
39995000: global: 
WRITE: REG NUMBER: 1 dist: 0
39995000: global: R0: 0	R1: 1808	R2: 0	R3: 0
39995000: global: 
WRITE: FPREG NUMBER: 1 dist: 0
39995000: global: FPR0: 0	FPR1: 1808	FPR2: 0	FPR3: 0
39995000: global: Writing output 1808 to register 1
39995000: global: Distance is: 0
39995000: system.cpu: Ins: 6306136064, 177e00000 @ PE 2
39995000: global: Predictor bit: 0	 Opcode: 7
39995000: global: CGRA: NOOP.Execute()
39995000: global: Distance is: 0
39995000: system.cpu: Ins: 6306136064, 177e00000 @ PE 3
39995000: global: Predictor bit: 0	 Opcode: 7
39995000: global: CGRA: NOOP.Execute()
39995000: global: Distance is: 0
39995000: system.cpu: Ins: 6306136064, 177e00000 @ PE 4
39995000: global: Predictor bit: 0	 Opcode: 7
39995000: global: CGRA: NOOP.Execute()
39995000: global: Distance is: 0
39995000: system.cpu: Ins: 6306136064, 177e00000 @ PE 5
39995000: global: Predictor bit: 0	 Opcode: 7
39995000: global: CGRA: NOOP.Execute()
39995000: global: Distance is: 0
39995000: system.cpu: Ins: 6306136064, 177e00000 @ PE 6
39995000: global: Predictor bit: 0	 Opcode: 7
39995000: global: CGRA: NOOP.Execute()
39995000: global: Distance is: 0
39995000: system.cpu: Ins: 6306136064, 177e00000 @ PE 7
39995000: global: Predictor bit: 0	 Opcode: 7
39995000: global: CGRA: NOOP.Execute()
39995000: global: Distance is: 0
39995000: system.cpu: Ins: 6306136064, 177e00000 @ PE 8
39995000: global: Predictor bit: 0	 Opcode: 7
39995000: global: CGRA: NOOP.Execute()
39995000: global: Distance is: 0
39995000: system.cpu: Ins: 6306136064, 177e00000 @ PE 9
39995000: global: Predictor bit: 0	 Opcode: 7
39995000: global: CGRA: NOOP.Execute()
39995000: global: Distance is: 0
39995000: system.cpu: Ins: 6306136064, 177e00000 @ PE 10
39995000: global: Predictor bit: 0	 Opcode: 7
39995000: global: CGRA: NOOP.Execute()
39995000: global: Distance is: 0
39995000: system.cpu: Ins: 6306136064, 177e00000 @ PE 11
39995000: global: Predictor bit: 0	 Opcode: 7
39995000: global: CGRA: NOOP.Execute()
39995000: global: Distance is: 0
39995000: system.cpu: Ins: 6306136064, 177e00000 @ PE 12
39995000: global: Predictor bit: 0	 Opcode: 7
39995000: global: CGRA: NOOP.Execute()
39995000: global: Distance is: 0
39995000: system.cpu: Ins: 6306136064, 177e00000 @ PE 13
39995000: global: Predictor bit: 0	 Opcode: 7
39995000: global: CGRA: NOOP.Execute()
39995000: global: Distance is: 0
39995000: system.cpu: Ins: 6306136064, 177e00000 @ PE 14
39995000: global: Predictor bit: 0	 Opcode: 7
39995000: global: CGRA: NOOP.Execute()
39995000: global: Distance is: 0
39995000: system.cpu: Ins: 6306136064, 177e00000 @ PE 15
39995000: global: Predictor bit: 0	 Opcode: 7
39995000: global: CGRA: NOOP.Execute()
39995000: global: Distance is: 0
39995000: system.cpu: CGRA advanceTime complete.
39995000: system.cpu: *******IN ADVANCE PC******
39995000: system.cpu: build/ARM/cpu/atomiccgra/atomiccgra.cc,CGRA_advancePC,1759,PC:a48f0
39995000: system.cpu: Passed Complete Drain().
39995000: system.cpu: Make latency status=1.
39995000: system.cpu: Inside status idle.
39995000: system.cpu: Exiting schedule events
39995000: system.cpu: We are here after Execution
39995500: system.cpu: Inside CGRA Execution else statement.
39995500: system.cpu: Inside CGRA_Execution block.
39995500: system.cpu: 
CALL IN NOW CGRA_Execution.
39995500: system.cpu: 

 ~~~~~~ CGRA_Execution @ numCycles = 5 ~~~~~~~
39995500: global: 
******** DB INPUT2 ReadAddress = 0************
39995500: global: 
READ: REG NUMBER: 0 dist: 0
39995500: global: Rotating REGS data: 0	REG: 0
39995500: global: 
******** DB INPUT2 ReadAddress = 0************
39995500: global: 
READ: REG NUMBER: 0 dist: 0
39995500: global: Rotating REGS data: 0	REG: 0
39995500: system.cpu: Ins: 5066801306, 12e01409a @ PE 0
39995500: global: Predictor bit: 1	 Opcode: 2
39995500: global: 
Input1 = 154	Input2 = 0
39995500: global: 
******** LDMI IN THIS PE 154************
39995500: global: 
************** WE *****************
39995500: global: 
WRITE: REG NUMBER: 2 dist: 0
39995500: global: R0: 0	R1: 0	R2: 632384	R3: 0
39995500: global: 
WRITE: FPREG NUMBER: 2 dist: 0
39995500: global: FPR0: 0	FPR1: 0	FPR2: 632384	FPR3: 0
39995500: global: Writing output 632384 to register 2
39995500: global: Distance is: 0
39995500: system.cpu: Ins: 5066768386, 12e00c002 @ PE 1
39995500: global: Predictor bit: 1	 Opcode: 2
39995500: global: 
Input1 = 2	Input2 = 0
39995500: global: 
******** LDMI IN THIS PE 2************
39995500: global: 
************** WE *****************
39995500: global: 
WRITE: REG NUMBER: 1 dist: 0
39995500: global: R0: 0	R1: 10000	R2: 0	R3: 0
39995500: global: 
WRITE: FPREG NUMBER: 1 dist: 0
39995500: global: FPR0: 0	FPR1: 10000	FPR2: 0	FPR3: 0
39995500: global: Writing output 10000 to register 1
39995500: global: Distance is: 0
39995500: system.cpu: Ins: 6306136064, 177e00000 @ PE 2
39995500: global: Predictor bit: 0	 Opcode: 7
39995500: global: CGRA: NOOP.Execute()
39995500: global: Distance is: 0
39995500: system.cpu: Ins: 6306136064, 177e00000 @ PE 3
39995500: global: Predictor bit: 0	 Opcode: 7
39995500: global: CGRA: NOOP.Execute()
39995500: global: Distance is: 0
39995500: system.cpu: Ins: 6306136064, 177e00000 @ PE 4
39995500: global: Predictor bit: 0	 Opcode: 7
39995500: global: CGRA: NOOP.Execute()
39995500: global: Distance is: 0
39995500: system.cpu: Ins: 6306136064, 177e00000 @ PE 5
39995500: global: Predictor bit: 0	 Opcode: 7
39995500: global: CGRA: NOOP.Execute()
39995500: global: Distance is: 0
39995500: system.cpu: Ins: 6306136064, 177e00000 @ PE 6
39995500: global: Predictor bit: 0	 Opcode: 7
39995500: global: CGRA: NOOP.Execute()
39995500: global: Distance is: 0
39995500: system.cpu: Ins: 6306136064, 177e00000 @ PE 7
39995500: global: Predictor bit: 0	 Opcode: 7
39995500: global: CGRA: NOOP.Execute()
39995500: global: Distance is: 0
39995500: system.cpu: Ins: 6306136064, 177e00000 @ PE 8
39995500: global: Predictor bit: 0	 Opcode: 7
39995500: global: CGRA: NOOP.Execute()
39995500: global: Distance is: 0
39995500: system.cpu: Ins: 6306136064, 177e00000 @ PE 9
39995500: global: Predictor bit: 0	 Opcode: 7
39995500: global: CGRA: NOOP.Execute()
39995500: global: Distance is: 0
39995500: system.cpu: Ins: 6306136064, 177e00000 @ PE 10
39995500: global: Predictor bit: 0	 Opcode: 7
39995500: global: CGRA: NOOP.Execute()
39995500: global: Distance is: 0
39995500: system.cpu: Ins: 6306136064, 177e00000 @ PE 11
39995500: global: Predictor bit: 0	 Opcode: 7
39995500: global: CGRA: NOOP.Execute()
39995500: global: Distance is: 0
39995500: system.cpu: Ins: 6306136064, 177e00000 @ PE 12
39995500: global: Predictor bit: 0	 Opcode: 7
39995500: global: CGRA: NOOP.Execute()
39995500: global: Distance is: 0
39995500: system.cpu: Ins: 6306136064, 177e00000 @ PE 13
39995500: global: Predictor bit: 0	 Opcode: 7
39995500: global: CGRA: NOOP.Execute()
39995500: global: Distance is: 0
39995500: system.cpu: Ins: 6306136064, 177e00000 @ PE 14
39995500: global: Predictor bit: 0	 Opcode: 7
39995500: global: CGRA: NOOP.Execute()
39995500: global: Distance is: 0
39995500: system.cpu: Ins: 6306136064, 177e00000 @ PE 15
39995500: global: Predictor bit: 0	 Opcode: 7
39995500: global: CGRA: NOOP.Execute()
39995500: global: Distance is: 0
39995500: system.cpu: CGRA advanceTime complete.
39995500: system.cpu: *******IN ADVANCE PC******
39995500: system.cpu: build/ARM/cpu/atomiccgra/atomiccgra.cc,CGRA_advancePC,1759,PC:a4970
39995500: system.cpu: Passed Complete Drain().
39995500: system.cpu: Make latency status=1.
39995500: system.cpu: Inside status idle.
39995500: system.cpu: Exiting schedule events
39995500: system.cpu: We are here after Execution
39996000: system.cpu: Inside CGRA Execution else statement.
39996000: system.cpu: Inside CGRA_Execution block.
39996000: system.cpu: 
CALL IN NOW CGRA_Execution.
39996000: system.cpu: 

 ~~~~~~ CGRA_Execution @ numCycles = 7 ~~~~~~~
39996000: global: 
******** DB INPUT2 ReadAddress = 0************
39996000: global: 
READ: REG NUMBER: 0 dist: 0
39996000: global: Rotating REGS data: 0	REG: 0
39996000: global: 
******** DB INPUT2 ReadAddress = 0************
39996000: global: 
READ: REG NUMBER: 0 dist: 0
39996000: global: Rotating REGS data: 0	REG: 0
39996000: system.cpu: Ins: 5335236608, 13e014000 @ PE 0
39996000: global: Predictor bit: 1	 Opcode: 3
39996000: global: 
Input1 = 0	Input2 = 0
39996000: global: 
******** LDUI IN THIS PE 0************
39996000: global: 
************** WE *****************
39996000: global: 
WRITE: REG NUMBER: 2 dist: 0
39996000: global: R0: 0	R1: 0	R2: 632384	R3: 0
39996000: global: 
WRITE: FPREG NUMBER: 2 dist: 0
39996000: global: FPR0: 0	FPR1: 0	FPR2: 632384	FPR3: 0
39996000: global: Writing output 632384 to register 2
39996000: global: Distance is: 0
39996000: system.cpu: Ins: 5335203840, 13e00c000 @ PE 1
39996000: global: Predictor bit: 1	 Opcode: 3
39996000: global: 
Input1 = 0	Input2 = 0
39996000: global: 
******** LDUI IN THIS PE 0************
39996000: global: 
************** WE *****************
39996000: global: 
WRITE: REG NUMBER: 1 dist: 0
39996000: global: R0: 0	R1: 10000	R2: 0	R3: 0
39996000: global: 
WRITE: FPREG NUMBER: 1 dist: 0
39996000: global: FPR0: 0	FPR1: 10000	FPR2: 0	FPR3: 0
39996000: global: Writing output 10000 to register 1
39996000: global: Distance is: 0
39996000: system.cpu: Ins: 6306136064, 177e00000 @ PE 2
39996000: global: Predictor bit: 0	 Opcode: 7
39996000: global: CGRA: NOOP.Execute()
39996000: global: Distance is: 0
39996000: system.cpu: Ins: 6306136064, 177e00000 @ PE 3
39996000: global: Predictor bit: 0	 Opcode: 7
39996000: global: CGRA: NOOP.Execute()
39996000: global: Distance is: 0
39996000: system.cpu: Ins: 6306136064, 177e00000 @ PE 4
39996000: global: Predictor bit: 0	 Opcode: 7
39996000: global: CGRA: NOOP.Execute()
39996000: global: Distance is: 0
39996000: system.cpu: Ins: 6306136064, 177e00000 @ PE 5
39996000: global: Predictor bit: 0	 Opcode: 7
39996000: global: CGRA: NOOP.Execute()
39996000: global: Distance is: 0
39996000: system.cpu: Ins: 6306136064, 177e00000 @ PE 6
39996000: global: Predictor bit: 0	 Opcode: 7
39996000: global: CGRA: NOOP.Execute()
39996000: global: Distance is: 0
39996000: system.cpu: Ins: 6306136064, 177e00000 @ PE 7
39996000: global: Predictor bit: 0	 Opcode: 7
39996000: global: CGRA: NOOP.Execute()
39996000: global: Distance is: 0
39996000: system.cpu: Ins: 6306136064, 177e00000 @ PE 8
39996000: global: Predictor bit: 0	 Opcode: 7
39996000: global: CGRA: NOOP.Execute()
39996000: global: Distance is: 0
39996000: system.cpu: Ins: 6306136064, 177e00000 @ PE 9
39996000: global: Predictor bit: 0	 Opcode: 7
39996000: global: CGRA: NOOP.Execute()
39996000: global: Distance is: 0
39996000: system.cpu: Ins: 6306136064, 177e00000 @ PE 10
39996000: global: Predictor bit: 0	 Opcode: 7
39996000: global: CGRA: NOOP.Execute()
39996000: global: Distance is: 0
39996000: system.cpu: Ins: 6306136064, 177e00000 @ PE 11
39996000: global: Predictor bit: 0	 Opcode: 7
39996000: global: CGRA: NOOP.Execute()
39996000: global: Distance is: 0
39996000: system.cpu: Ins: 6306136064, 177e00000 @ PE 12
39996000: global: Predictor bit: 0	 Opcode: 7
39996000: global: CGRA: NOOP.Execute()
39996000: global: Distance is: 0
39996000: system.cpu: Ins: 6306136064, 177e00000 @ PE 13
39996000: global: Predictor bit: 0	 Opcode: 7
39996000: global: CGRA: NOOP.Execute()
39996000: global: Distance is: 0
39996000: system.cpu: Ins: 6306136064, 177e00000 @ PE 14
39996000: global: Predictor bit: 0	 Opcode: 7
39996000: global: CGRA: NOOP.Execute()
39996000: global: Distance is: 0
39996000: system.cpu: Ins: 6306136064, 177e00000 @ PE 15
39996000: global: Predictor bit: 0	 Opcode: 7
39996000: global: CGRA: NOOP.Execute()
39996000: global: Distance is: 0
39996000: system.cpu: CGRA advanceTime complete.
39996000: system.cpu: *******IN ADVANCE PC******
39996000: system.cpu: build/ARM/cpu/atomiccgra/atomiccgra.cc,CGRA_advancePC,1759,PC:a49f0
39996000: system.cpu: Passed Complete Drain().
39996000: system.cpu: Make latency status=1.
39996000: system.cpu: Inside status idle.
39996000: system.cpu: Exiting schedule events
39996000: system.cpu: We are here after Execution
39996500: system.cpu: Inside CGRA Execution else statement.
39996500: system.cpu: Inside CGRA_Execution block.
39996500: system.cpu: 
CALL IN NOW CGRA_Execution.
39996500: system.cpu: 

 ~~~~~~ CGRA_Execution @ numCycles = 9 ~~~~~~~
39996500: global: 
******** DB INPUT1 ReadAddress = 2************
39996500: global: 
******** DB INPUT2 ReadAddress = 0************
39996500: global: 
READ: REG NUMBER: 0 dist: 0
39996500: global: Rotating REGS data: 0	REG: 0
39996500: system.cpu: Ins: 6053437444, 168d02004 @ PE 0
39996500: global: Predictor bit: 1	 Opcode: 6
39996500: global: 
Input1 = 632384	Input2 = 4
39996500: global: 
******** ADDRESS GENERATED IN THIS PE 632384************
39996500: global: 
*********Setting Address 9a640 ******
39996500: global: Distance is: 1
39996500: system.cpu: Ins: 4798334736, 11e00c710 @ PE 1
39996500: global: Predictor bit: 1	 Opcode: 1
39996500: global: 
Input1 = 1808	Input2 = 0
39996500: global: 
******** LDI IN THIS PE 1808************
39996500: global: 
************** WE *****************
39996500: global: 
WRITE: REG NUMBER: 1 dist: 0
39996500: global: R0: 0	R1: 1808	R2: 0	R3: 0
39996500: global: 
WRITE: FPREG NUMBER: 1 dist: 0
39996500: global: FPR0: 0	FPR1: 1808	FPR2: 0	FPR3: 0
39996500: global: Writing output 1808 to register 1
39996500: global: Distance is: 0
39996500: system.cpu: Ins: 6306136064, 177e00000 @ PE 2
39996500: global: Predictor bit: 0	 Opcode: 7
39996500: global: CGRA: NOOP.Execute()
39996500: global: Distance is: 0
39996500: system.cpu: Ins: 6306136064, 177e00000 @ PE 3
39996500: global: Predictor bit: 0	 Opcode: 7
39996500: global: CGRA: NOOP.Execute()
39996500: global: Distance is: 0
39996500: system.cpu: Ins: 6306136064, 177e00000 @ PE 4
39996500: global: Predictor bit: 0	 Opcode: 7
39996500: global: CGRA: NOOP.Execute()
39996500: global: Distance is: 0
39996500: system.cpu: Ins: 6306136064, 177e00000 @ PE 5
39996500: global: Predictor bit: 0	 Opcode: 7
39996500: global: CGRA: NOOP.Execute()
39996500: global: Distance is: 0
39996500: system.cpu: Ins: 6306136064, 177e00000 @ PE 6
39996500: global: Predictor bit: 0	 Opcode: 7
39996500: global: CGRA: NOOP.Execute()
39996500: global: Distance is: 0
39996500: system.cpu: Ins: 6306136064, 177e00000 @ PE 7
39996500: global: Predictor bit: 0	 Opcode: 7
39996500: global: CGRA: NOOP.Execute()
39996500: global: Distance is: 0
39996500: system.cpu: Ins: 6306136064, 177e00000 @ PE 8
39996500: global: Predictor bit: 0	 Opcode: 7
39996500: global: CGRA: NOOP.Execute()
39996500: global: Distance is: 0
39996500: system.cpu: Ins: 6306136064, 177e00000 @ PE 9
39996500: global: Predictor bit: 0	 Opcode: 7
39996500: global: CGRA: NOOP.Execute()
39996500: global: Distance is: 0
39996500: system.cpu: Ins: 6306136064, 177e00000 @ PE 10
39996500: global: Predictor bit: 0	 Opcode: 7
39996500: global: CGRA: NOOP.Execute()
39996500: global: Distance is: 0
39996500: system.cpu: Ins: 6306136064, 177e00000 @ PE 11
39996500: global: Predictor bit: 0	 Opcode: 7
39996500: global: CGRA: NOOP.Execute()
39996500: global: Distance is: 0
39996500: system.cpu: Ins: 6306136064, 177e00000 @ PE 12
39996500: global: Predictor bit: 0	 Opcode: 7
39996500: global: CGRA: NOOP.Execute()
39996500: global: Distance is: 0
39996500: system.cpu: Ins: 6306136064, 177e00000 @ PE 13
39996500: global: Predictor bit: 0	 Opcode: 7
39996500: global: CGRA: NOOP.Execute()
39996500: global: Distance is: 0
39996500: system.cpu: Ins: 6306136064, 177e00000 @ PE 14
39996500: global: Predictor bit: 0	 Opcode: 7
39996500: global: CGRA: NOOP.Execute()
39996500: global: Distance is: 0
39996500: system.cpu: Ins: 6306136064, 177e00000 @ PE 15
39996500: global: Predictor bit: 0	 Opcode: 7
39996500: global: CGRA: NOOP.Execute()
39996500: global: Distance is: 0

************* MEM READ *************
Row: 0 - address: 632384 - data: 6
39996500: system.cpu: CGRA advanceTime complete.
39996500: system.cpu: *******IN ADVANCE PC******
39996500: system.cpu: build/ARM/cpu/atomiccgra/atomiccgra.cc,CGRA_advancePC,1759,PC:a4a70
39996500: system.cpu: Passed Complete Drain().
39996500: system.cpu: Make latency status=1.
39996500: system.cpu: Inside status idle.
39996500: system.cpu: Exiting schedule events
39996500: system.cpu: We are here after Execution
39997000: system.cpu: Inside CGRA Execution else statement.
39997000: system.cpu: Inside CGRA_Execution block.
39997000: system.cpu: 
CALL IN NOW CGRA_Execution.
39997000: system.cpu: 

 ~~~~~~ CGRA_Execution @ numCycles = 11 ~~~~~~~
39997000: global: 
******** DB INPUT1 = 6************
39997000: global: 
******** DB INPUT2 ReadAddress = 0************
39997000: global: 
READ: REG NUMBER: 0 dist: 0
39997000: global: Rotating REGS data: 0	REG: 0
39997000: system.cpu: Ins: 4391518208, 105c14000 @ PE 0
39997000: global: Predictor bit: 0	 Opcode: 0
39997000: global: 
Input1 = 6	Input2 = 0
39997000: global: 
******** SUM IN THIS PE 6************
39997000: global: 
WRITE: REG NUMBER: 2 dist: 1
39997000: global: R0: 0	R1: 0	R2: 6	R3: 0
39997000: global: 
WRITE: FPREG NUMBER: 2 dist: 1
39997000: global: FPR0: 0	FPR1: 0	FPR2: 6	FPR3: 0
39997000: global: Writing output 6 to register 2
39997000: global: Distance is: 1
39997000: system.cpu: Ins: 5066768386, 12e00c002 @ PE 1
39997000: global: Predictor bit: 1	 Opcode: 2
39997000: global: 
Input1 = 2	Input2 = 0
39997000: global: 
******** LDMI IN THIS PE 2************
39997000: global: 
************** WE *****************
39997000: global: 
WRITE: REG NUMBER: 1 dist: 0
39997000: global: R0: 0	R1: 10000	R2: 0	R3: 0
39997000: global: 
WRITE: FPREG NUMBER: 1 dist: 0
39997000: global: FPR0: 0	FPR1: 10000	FPR2: 0	FPR3: 0
39997000: global: Writing output 10000 to register 1
39997000: global: Distance is: 0
39997000: system.cpu: Ins: 6306136064, 177e00000 @ PE 2
39997000: global: Predictor bit: 0	 Opcode: 7
39997000: global: CGRA: NOOP.Execute()
39997000: global: Distance is: 0
39997000: system.cpu: Ins: 6306136064, 177e00000 @ PE 3
39997000: global: Predictor bit: 0	 Opcode: 7
39997000: global: CGRA: NOOP.Execute()
39997000: global: Distance is: 0
39997000: system.cpu: Ins: 6306136064, 177e00000 @ PE 4
39997000: global: Predictor bit: 0	 Opcode: 7
39997000: global: CGRA: NOOP.Execute()
39997000: global: Distance is: 0
39997000: system.cpu: Ins: 6306136064, 177e00000 @ PE 5
39997000: global: Predictor bit: 0	 Opcode: 7
39997000: global: CGRA: NOOP.Execute()
39997000: global: Distance is: 0
39997000: system.cpu: Ins: 6306136064, 177e00000 @ PE 6
39997000: global: Predictor bit: 0	 Opcode: 7
39997000: global: CGRA: NOOP.Execute()
39997000: global: Distance is: 0
39997000: system.cpu: Ins: 6306136064, 177e00000 @ PE 7
39997000: global: Predictor bit: 0	 Opcode: 7
39997000: global: CGRA: NOOP.Execute()
39997000: global: Distance is: 0
39997000: system.cpu: Ins: 6306136064, 177e00000 @ PE 8
39997000: global: Predictor bit: 0	 Opcode: 7
39997000: global: CGRA: NOOP.Execute()
39997000: global: Distance is: 0
39997000: system.cpu: Ins: 6306136064, 177e00000 @ PE 9
39997000: global: Predictor bit: 0	 Opcode: 7
39997000: global: CGRA: NOOP.Execute()
39997000: global: Distance is: 0
39997000: system.cpu: Ins: 6306136064, 177e00000 @ PE 10
39997000: global: Predictor bit: 0	 Opcode: 7
39997000: global: CGRA: NOOP.Execute()
39997000: global: Distance is: 0
39997000: system.cpu: Ins: 6306136064, 177e00000 @ PE 11
39997000: global: Predictor bit: 0	 Opcode: 7
39997000: global: CGRA: NOOP.Execute()
39997000: global: Distance is: 0
39997000: system.cpu: Ins: 6306136064, 177e00000 @ PE 12
39997000: global: Predictor bit: 0	 Opcode: 7
39997000: global: CGRA: NOOP.Execute()
39997000: global: Distance is: 0
39997000: system.cpu: Ins: 6306136064, 177e00000 @ PE 13
39997000: global: Predictor bit: 0	 Opcode: 7
39997000: global: CGRA: NOOP.Execute()
39997000: global: Distance is: 0
39997000: system.cpu: Ins: 6306136064, 177e00000 @ PE 14
39997000: global: Predictor bit: 0	 Opcode: 7
39997000: global: CGRA: NOOP.Execute()
39997000: global: Distance is: 0
39997000: system.cpu: Ins: 6306136064, 177e00000 @ PE 15
39997000: global: Predictor bit: 0	 Opcode: 7
39997000: global: CGRA: NOOP.Execute()
39997000: global: Distance is: 0

************* MEM READ *************
Row: 0 - address: 632384 - data: 6
39997000: system.cpu: CGRA advanceTime complete.
39997000: system.cpu: *******IN ADVANCE PC******
39997000: system.cpu: build/ARM/cpu/atomiccgra/atomiccgra.cc,CGRA_advancePC,1759,PC:a4af0
39997000: system.cpu: Passed Complete Drain().
39997000: system.cpu: Make latency status=1.
39997000: system.cpu: Inside status idle.
39997000: system.cpu: Exiting schedule events
39997000: system.cpu: We are here after Execution
39997500: system.cpu: Inside CGRA Execution else statement.
39997500: system.cpu: Inside CGRA_Execution block.
39997500: system.cpu: 
CALL IN NOW CGRA_Execution.
39997500: system.cpu: 

 ~~~~~~ CGRA_Execution @ numCycles = 13 ~~~~~~~
39997500: global: 
******** DB INPUT2 ReadAddress = 0************
39997500: global: 
READ: REG NUMBER: 0 dist: 1
39997500: global: Rotating REGS data: 0	REG: 1
39997500: global: 
******** DB INPUT2 ReadAddress = 0************
39997500: global: 
READ: REG NUMBER: 0 dist: 0
39997500: global: Rotating REGS data: 0	REG: 0
39997500: system.cpu: Ins: 4798402559, 11e01cfff @ PE 0
39997500: global: Predictor bit: 1	 Opcode: 1
39997500: global: 
Input1 = 4095	Input2 = 0
39997500: global: 
******** LDI IN THIS PE 4095************
39997500: global: 
************** WE *****************
39997500: global: 
WRITE: REG NUMBER: 3 dist: 1
39997500: global: R0: 0	R1: 0	R2: 6	R3: 4095
39997500: global: 
WRITE: FPREG NUMBER: 3 dist: 1
39997500: global: FPR0: 0	FPR1: 0	FPR2: 6	FPR3: 4095
39997500: global: Writing output 4095 to register 3
39997500: global: Distance is: 1
39997500: system.cpu: Ins: 5335203840, 13e00c000 @ PE 1
39997500: global: Predictor bit: 1	 Opcode: 3
39997500: global: 
Input1 = 0	Input2 = 0
39997500: global: 
******** LDUI IN THIS PE 0************
39997500: global: 
************** WE *****************
39997500: global: 
WRITE: REG NUMBER: 1 dist: 0
39997500: global: R0: 0	R1: 10000	R2: 0	R3: 0
39997500: global: 
WRITE: FPREG NUMBER: 1 dist: 0
39997500: global: FPR0: 0	FPR1: 10000	FPR2: 0	FPR3: 0
39997500: global: Writing output 10000 to register 1
39997500: global: Distance is: 0
39997500: system.cpu: Ins: 6306136064, 177e00000 @ PE 2
39997500: global: Predictor bit: 0	 Opcode: 7
39997500: global: CGRA: NOOP.Execute()
39997500: global: Distance is: 0
39997500: system.cpu: Ins: 6306136064, 177e00000 @ PE 3
39997500: global: Predictor bit: 0	 Opcode: 7
39997500: global: CGRA: NOOP.Execute()
39997500: global: Distance is: 0
39997500: system.cpu: Ins: 6306136064, 177e00000 @ PE 4
39997500: global: Predictor bit: 0	 Opcode: 7
39997500: global: CGRA: NOOP.Execute()
39997500: global: Distance is: 0
39997500: system.cpu: Ins: 6306136064, 177e00000 @ PE 5
39997500: global: Predictor bit: 0	 Opcode: 7
39997500: global: CGRA: NOOP.Execute()
39997500: global: Distance is: 0
39997500: system.cpu: Ins: 6306136064, 177e00000 @ PE 6
39997500: global: Predictor bit: 0	 Opcode: 7
39997500: global: CGRA: NOOP.Execute()
39997500: global: Distance is: 0
39997500: system.cpu: Ins: 6306136064, 177e00000 @ PE 7
39997500: global: Predictor bit: 0	 Opcode: 7
39997500: global: CGRA: NOOP.Execute()
39997500: global: Distance is: 0
39997500: system.cpu: Ins: 6306136064, 177e00000 @ PE 8
39997500: global: Predictor bit: 0	 Opcode: 7
39997500: global: CGRA: NOOP.Execute()
39997500: global: Distance is: 0
39997500: system.cpu: Ins: 6306136064, 177e00000 @ PE 9
39997500: global: Predictor bit: 0	 Opcode: 7
39997500: global: CGRA: NOOP.Execute()
39997500: global: Distance is: 0
39997500: system.cpu: Ins: 6306136064, 177e00000 @ PE 10
39997500: global: Predictor bit: 0	 Opcode: 7
39997500: global: CGRA: NOOP.Execute()
39997500: global: Distance is: 0
39997500: system.cpu: Ins: 6306136064, 177e00000 @ PE 11
39997500: global: Predictor bit: 0	 Opcode: 7
39997500: global: CGRA: NOOP.Execute()
39997500: global: Distance is: 0
39997500: system.cpu: Ins: 6306136064, 177e00000 @ PE 12
39997500: global: Predictor bit: 0	 Opcode: 7
39997500: global: CGRA: NOOP.Execute()
39997500: global: Distance is: 0
39997500: system.cpu: Ins: 6306136064, 177e00000 @ PE 13
39997500: global: Predictor bit: 0	 Opcode: 7
39997500: global: CGRA: NOOP.Execute()
39997500: global: Distance is: 0
39997500: system.cpu: Ins: 6306136064, 177e00000 @ PE 14
39997500: global: Predictor bit: 0	 Opcode: 7
39997500: global: CGRA: NOOP.Execute()
39997500: global: Distance is: 0
39997500: system.cpu: Ins: 6306136064, 177e00000 @ PE 15
39997500: global: Predictor bit: 0	 Opcode: 7
39997500: global: CGRA: NOOP.Execute()
39997500: global: Distance is: 0

************* MEM READ *************
Row: 0 - address: 632384 - data: 6
39997500: system.cpu: CGRA advanceTime complete.
39997500: system.cpu: *******IN ADVANCE PC******
39997500: system.cpu: build/ARM/cpu/atomiccgra/atomiccgra.cc,CGRA_advancePC,1759,PC:a4b70
39997500: system.cpu: Passed Complete Drain().
39997500: system.cpu: Make latency status=1.
39997500: system.cpu: Inside status idle.
39997500: system.cpu: Exiting schedule events
39997500: system.cpu: We are here after Execution
39998000: system.cpu: Inside CGRA Execution else statement.
39998000: system.cpu: Inside CGRA_Execution block.
39998000: system.cpu: 
CALL IN NOW CGRA_Execution.
39998000: system.cpu: 

 ~~~~~~ CGRA_Execution @ numCycles = 15 ~~~~~~~
39998000: global: 
******** DB INPUT2 ReadAddress = 0************
39998000: global: 
READ: REG NUMBER: 0 dist: 1
39998000: global: Rotating REGS data: 0	REG: 1
39998000: system.cpu: Ins: 5066838015, 12e01cfff @ PE 0
39998000: global: Predictor bit: 1	 Opcode: 2
39998000: global: 
Input1 = 4095	Input2 = 0
39998000: global: 
******** LDMI IN THIS PE 4095************
39998000: global: 
************** WE *****************
39998000: global: 
WRITE: REG NUMBER: 3 dist: 1
39998000: global: R0: 0	R1: 0	R2: 6	R3: 16777215
39998000: global: 
WRITE: FPREG NUMBER: 3 dist: 1
39998000: global: FPR0: 0	FPR1: 0	FPR2: 6	FPR3: 1.67772e+07
39998000: global: Writing output 16777215 to register 3
39998000: global: Distance is: 1
39998000: system.cpu: Ins: 6306136064, 177e00000 @ PE 1
39998000: global: Predictor bit: 0	 Opcode: 7
39998000: global: CGRA: NOOP.Execute()
39998000: global: Distance is: 0
39998000: system.cpu: Ins: 6306136064, 177e00000 @ PE 2
39998000: global: Predictor bit: 0	 Opcode: 7
39998000: global: CGRA: NOOP.Execute()
39998000: global: Distance is: 0
39998000: system.cpu: Ins: 6306136064, 177e00000 @ PE 3
39998000: global: Predictor bit: 0	 Opcode: 7
39998000: global: CGRA: NOOP.Execute()
39998000: global: Distance is: 0
39998000: system.cpu: Ins: 6306136064, 177e00000 @ PE 4
39998000: global: Predictor bit: 0	 Opcode: 7
39998000: global: CGRA: NOOP.Execute()
39998000: global: Distance is: 0
39998000: system.cpu: Ins: 6306136064, 177e00000 @ PE 5
39998000: global: Predictor bit: 0	 Opcode: 7
39998000: global: CGRA: NOOP.Execute()
39998000: global: Distance is: 0
39998000: system.cpu: Ins: 6306136064, 177e00000 @ PE 6
39998000: global: Predictor bit: 0	 Opcode: 7
39998000: global: CGRA: NOOP.Execute()
39998000: global: Distance is: 0
39998000: system.cpu: Ins: 6306136064, 177e00000 @ PE 7
39998000: global: Predictor bit: 0	 Opcode: 7
39998000: global: CGRA: NOOP.Execute()
39998000: global: Distance is: 0
39998000: system.cpu: Ins: 6306136064, 177e00000 @ PE 8
39998000: global: Predictor bit: 0	 Opcode: 7
39998000: global: CGRA: NOOP.Execute()
39998000: global: Distance is: 0
39998000: system.cpu: Ins: 6306136064, 177e00000 @ PE 9
39998000: global: Predictor bit: 0	 Opcode: 7
39998000: global: CGRA: NOOP.Execute()
39998000: global: Distance is: 0
39998000: system.cpu: Ins: 6306136064, 177e00000 @ PE 10
39998000: global: Predictor bit: 0	 Opcode: 7
39998000: global: CGRA: NOOP.Execute()
39998000: global: Distance is: 0
39998000: system.cpu: Ins: 6306136064, 177e00000 @ PE 11
39998000: global: Predictor bit: 0	 Opcode: 7
39998000: global: CGRA: NOOP.Execute()
39998000: global: Distance is: 0
39998000: system.cpu: Ins: 6306136064, 177e00000 @ PE 12
39998000: global: Predictor bit: 0	 Opcode: 7
39998000: global: CGRA: NOOP.Execute()
39998000: global: Distance is: 0
39998000: system.cpu: Ins: 6306136064, 177e00000 @ PE 13
39998000: global: Predictor bit: 0	 Opcode: 7
39998000: global: CGRA: NOOP.Execute()
39998000: global: Distance is: 0
39998000: system.cpu: Ins: 6306136064, 177e00000 @ PE 14
39998000: global: Predictor bit: 0	 Opcode: 7
39998000: global: CGRA: NOOP.Execute()
39998000: global: Distance is: 0
39998000: system.cpu: Ins: 6306136064, 177e00000 @ PE 15
39998000: global: Predictor bit: 0	 Opcode: 7
39998000: global: CGRA: NOOP.Execute()
39998000: global: Distance is: 0

************* MEM READ *************
Row: 0 - address: 632384 - data: 6
39998000: system.cpu: CGRA advanceTime complete.
39998000: system.cpu: *******IN ADVANCE PC******
39998000: system.cpu: build/ARM/cpu/atomiccgra/atomiccgra.cc,CGRA_advancePC,1759,PC:a4bf0
39998000: system.cpu: Passed Complete Drain().
39998000: system.cpu: Make latency status=1.
39998000: system.cpu: Inside status idle.
39998000: system.cpu: Exiting schedule events
39998000: system.cpu: We are here after Execution
39998500: system.cpu: Inside CGRA Execution else statement.
39998500: system.cpu: Inside CGRA_Execution block.
39998500: system.cpu: 
CALL IN NOW CGRA_Execution.
39998500: system.cpu: 

 ~~~~~~ CGRA_Execution @ numCycles = 17 ~~~~~~~
39998500: global: 
******** DB INPUT2 ReadAddress = 0************
39998500: global: 
READ: REG NUMBER: 0 dist: 0
39998500: global: Rotating REGS data: 0	REG: 0
39998500: system.cpu: Ins: 5335269631, 13e01c0ff @ PE 0
39998500: global: Predictor bit: 1	 Opcode: 3
39998500: global: 
Input1 = 255	Input2 = 0
39998500: global: 
******** LDUI IN THIS PE 255************
39998500: global: 
************** WE *****************
39998500: global: 
WRITE: REG NUMBER: 3 dist: 0
39998500: global: R0: 0	R1: 0	R2: 6	R3: -1
39998500: global: 
WRITE: FPREG NUMBER: 3 dist: 0
39998500: global: FPR0: 0	FPR1: 0	FPR2: 6	FPR3: -1
39998500: global: Writing output -1 to register 3
39998500: global: Distance is: 0
39998500: system.cpu: Ins: 6306136064, 177e00000 @ PE 1
39998500: global: Predictor bit: 0	 Opcode: 7
39998500: global: CGRA: NOOP.Execute()
39998500: global: Distance is: 0
39998500: system.cpu: Ins: 6306136064, 177e00000 @ PE 2
39998500: global: Predictor bit: 0	 Opcode: 7
39998500: global: CGRA: NOOP.Execute()
39998500: global: Distance is: 0
39998500: system.cpu: Ins: 6306136064, 177e00000 @ PE 3
39998500: global: Predictor bit: 0	 Opcode: 7
39998500: global: CGRA: NOOP.Execute()
39998500: global: Distance is: 0
39998500: system.cpu: Ins: 6306136064, 177e00000 @ PE 4
39998500: global: Predictor bit: 0	 Opcode: 7
39998500: global: CGRA: NOOP.Execute()
39998500: global: Distance is: 0
39998500: system.cpu: Ins: 6306136064, 177e00000 @ PE 5
39998500: global: Predictor bit: 0	 Opcode: 7
39998500: global: CGRA: NOOP.Execute()
39998500: global: Distance is: 0
39998500: system.cpu: Ins: 6306136064, 177e00000 @ PE 6
39998500: global: Predictor bit: 0	 Opcode: 7
39998500: global: CGRA: NOOP.Execute()
39998500: global: Distance is: 0
39998500: system.cpu: Ins: 6306136064, 177e00000 @ PE 7
39998500: global: Predictor bit: 0	 Opcode: 7
39998500: global: CGRA: NOOP.Execute()
39998500: global: Distance is: 0
39998500: system.cpu: Ins: 6306136064, 177e00000 @ PE 8
39998500: global: Predictor bit: 0	 Opcode: 7
39998500: global: CGRA: NOOP.Execute()
39998500: global: Distance is: 0
39998500: system.cpu: Ins: 6306136064, 177e00000 @ PE 9
39998500: global: Predictor bit: 0	 Opcode: 7
39998500: global: CGRA: NOOP.Execute()
39998500: global: Distance is: 0
39998500: system.cpu: Ins: 6306136064, 177e00000 @ PE 10
39998500: global: Predictor bit: 0	 Opcode: 7
39998500: global: CGRA: NOOP.Execute()
39998500: global: Distance is: 0
39998500: system.cpu: Ins: 6306136064, 177e00000 @ PE 11
39998500: global: Predictor bit: 0	 Opcode: 7
39998500: global: CGRA: NOOP.Execute()
39998500: global: Distance is: 0
39998500: system.cpu: Ins: 6306136064, 177e00000 @ PE 12
39998500: global: Predictor bit: 0	 Opcode: 7
39998500: global: CGRA: NOOP.Execute()
39998500: global: Distance is: 0
39998500: system.cpu: Ins: 6306136064, 177e00000 @ PE 13
39998500: global: Predictor bit: 0	 Opcode: 7
39998500: global: CGRA: NOOP.Execute()
39998500: global: Distance is: 0
39998500: system.cpu: Ins: 6306136064, 177e00000 @ PE 14
39998500: global: Predictor bit: 0	 Opcode: 7
39998500: global: CGRA: NOOP.Execute()
39998500: global: Distance is: 0
39998500: system.cpu: Ins: 6306136064, 177e00000 @ PE 15
39998500: global: Predictor bit: 0	 Opcode: 7
39998500: global: CGRA: NOOP.Execute()
39998500: global: Distance is: 0

************* MEM READ *************
Row: 0 - address: 632384 - data: 6
39998500: system.cpu: CGRA advanceTime complete.
39998500: system.cpu: *******IN ADVANCE PC******
39998500: system.cpu: build/ARM/cpu/atomiccgra/atomiccgra.cc,CGRA_advancePC,1759,PC:a4c70
39998500: system.cpu: Passed Complete Drain().
39998500: system.cpu: Make latency status=1.
39998500: system.cpu: Inside status idle.
39998500: system.cpu: Exiting schedule events
39998500: system.cpu: We are here after Execution
39999000: system.cpu: Inside CGRA Execution else statement.
39999000: system.cpu: Inside CGRA_Execution block.
39999000: system.cpu: 
CALL IN NOW CGRA_Execution.
39999000: system.cpu: 

 ~~~~~~ CGRA_Execution @ numCycles = 19 ~~~~~~~
39999000: global: 
******** DB INPUT2 ReadAddress = 0************
39999000: global: 
READ: REG NUMBER: 0 dist: 0
39999000: global: Rotating REGS data: 0	REG: 0
39999000: system.cpu: Ins: 4798400064, 11e01c640 @ PE 0
39999000: global: Predictor bit: 1	 Opcode: 1
39999000: global: 
Input1 = 1600	Input2 = 0
39999000: global: 
******** LDI IN THIS PE 1600************
39999000: global: 
************** WE *****************
39999000: global: 
WRITE: REG NUMBER: 3 dist: 0
39999000: global: R0: 0	R1: 0	R2: 6	R3: 1600
39999000: global: 
WRITE: FPREG NUMBER: 3 dist: 0
39999000: global: FPR0: 0	FPR1: 0	FPR2: 6	FPR3: 1600
39999000: global: Writing output 1600 to register 3
39999000: global: Distance is: 0
39999000: system.cpu: Ins: 6306136064, 177e00000 @ PE 1
39999000: global: Predictor bit: 0	 Opcode: 7
39999000: global: CGRA: NOOP.Execute()
39999000: global: Distance is: 0
39999000: system.cpu: Ins: 6306136064, 177e00000 @ PE 2
39999000: global: Predictor bit: 0	 Opcode: 7
39999000: global: CGRA: NOOP.Execute()
39999000: global: Distance is: 0
39999000: system.cpu: Ins: 6306136064, 177e00000 @ PE 3
39999000: global: Predictor bit: 0	 Opcode: 7
39999000: global: CGRA: NOOP.Execute()
39999000: global: Distance is: 0
39999000: system.cpu: Ins: 6306136064, 177e00000 @ PE 4
39999000: global: Predictor bit: 0	 Opcode: 7
39999000: global: CGRA: NOOP.Execute()
39999000: global: Distance is: 0
39999000: system.cpu: Ins: 6306136064, 177e00000 @ PE 5
39999000: global: Predictor bit: 0	 Opcode: 7
39999000: global: CGRA: NOOP.Execute()
39999000: global: Distance is: 0
39999000: system.cpu: Ins: 6306136064, 177e00000 @ PE 6
39999000: global: Predictor bit: 0	 Opcode: 7
39999000: global: CGRA: NOOP.Execute()
39999000: global: Distance is: 0
39999000: system.cpu: Ins: 6306136064, 177e00000 @ PE 7
39999000: global: Predictor bit: 0	 Opcode: 7
39999000: global: CGRA: NOOP.Execute()
39999000: global: Distance is: 0
39999000: system.cpu: Ins: 6306136064, 177e00000 @ PE 8
39999000: global: Predictor bit: 0	 Opcode: 7
39999000: global: CGRA: NOOP.Execute()
39999000: global: Distance is: 0
39999000: system.cpu: Ins: 6306136064, 177e00000 @ PE 9
39999000: global: Predictor bit: 0	 Opcode: 7
39999000: global: CGRA: NOOP.Execute()
39999000: global: Distance is: 0
39999000: system.cpu: Ins: 6306136064, 177e00000 @ PE 10
39999000: global: Predictor bit: 0	 Opcode: 7
39999000: global: CGRA: NOOP.Execute()
39999000: global: Distance is: 0
39999000: system.cpu: Ins: 6306136064, 177e00000 @ PE 11
39999000: global: Predictor bit: 0	 Opcode: 7
39999000: global: CGRA: NOOP.Execute()
39999000: global: Distance is: 0
39999000: system.cpu: Ins: 6306136064, 177e00000 @ PE 12
39999000: global: Predictor bit: 0	 Opcode: 7
39999000: global: CGRA: NOOP.Execute()
39999000: global: Distance is: 0
39999000: system.cpu: Ins: 6306136064, 177e00000 @ PE 13
39999000: global: Predictor bit: 0	 Opcode: 7
39999000: global: CGRA: NOOP.Execute()
39999000: global: Distance is: 0
39999000: system.cpu: Ins: 6306136064, 177e00000 @ PE 14
39999000: global: Predictor bit: 0	 Opcode: 7
39999000: global: CGRA: NOOP.Execute()
39999000: global: Distance is: 0
39999000: system.cpu: Ins: 6306136064, 177e00000 @ PE 15
39999000: global: Predictor bit: 0	 Opcode: 7
39999000: global: CGRA: NOOP.Execute()
39999000: global: Distance is: 0

************* MEM READ *************
Row: 0 - address: 632384 - data: 6
39999000: system.cpu: CGRA advanceTime complete.
39999000: system.cpu: *******IN ADVANCE PC******
39999000: system.cpu: build/ARM/cpu/atomiccgra/atomiccgra.cc,CGRA_advancePC,1759,PC:a4cf0
39999000: system.cpu: Passed Complete Drain().
39999000: system.cpu: Make latency status=1.
39999000: system.cpu: Inside status idle.
39999000: system.cpu: Exiting schedule events
39999000: system.cpu: We are here after Execution
39999500: system.cpu: Inside CGRA Execution else statement.
39999500: system.cpu: Inside CGRA_Execution block.
39999500: system.cpu: 
CALL IN NOW CGRA_Execution.
39999500: system.cpu: 

 ~~~~~~ CGRA_Execution @ numCycles = 21 ~~~~~~~
39999500: global: 
******** DB INPUT2 ReadAddress = 0************
39999500: global: 
READ: REG NUMBER: 0 dist: 0
39999500: global: Rotating REGS data: 0	REG: 0
39999500: system.cpu: Ins: 5066834074, 12e01c09a @ PE 0
39999500: global: Predictor bit: 1	 Opcode: 2
39999500: global: 
Input1 = 154	Input2 = 0
39999500: global: 
******** LDMI IN THIS PE 154************
39999500: global: 
************** WE *****************
39999500: global: 
WRITE: REG NUMBER: 3 dist: 0
39999500: global: R0: 0	R1: 0	R2: 6	R3: 632384
39999500: global: 
WRITE: FPREG NUMBER: 3 dist: 0
39999500: global: FPR0: 0	FPR1: 0	FPR2: 6	FPR3: 632384
39999500: global: Writing output 632384 to register 3
39999500: global: Distance is: 0
39999500: system.cpu: Ins: 6306136064, 177e00000 @ PE 1
39999500: global: Predictor bit: 0	 Opcode: 7
39999500: global: CGRA: NOOP.Execute()
39999500: global: Distance is: 0
39999500: system.cpu: Ins: 6306136064, 177e00000 @ PE 2
39999500: global: Predictor bit: 0	 Opcode: 7
39999500: global: CGRA: NOOP.Execute()
39999500: global: Distance is: 0
39999500: system.cpu: Ins: 6306136064, 177e00000 @ PE 3
39999500: global: Predictor bit: 0	 Opcode: 7
39999500: global: CGRA: NOOP.Execute()
39999500: global: Distance is: 0
39999500: system.cpu: Ins: 6306136064, 177e00000 @ PE 4
39999500: global: Predictor bit: 0	 Opcode: 7
39999500: global: CGRA: NOOP.Execute()
39999500: global: Distance is: 0
39999500: system.cpu: Ins: 6306136064, 177e00000 @ PE 5
39999500: global: Predictor bit: 0	 Opcode: 7
39999500: global: CGRA: NOOP.Execute()
39999500: global: Distance is: 0
39999500: system.cpu: Ins: 6306136064, 177e00000 @ PE 6
39999500: global: Predictor bit: 0	 Opcode: 7
39999500: global: CGRA: NOOP.Execute()
39999500: global: Distance is: 0
39999500: system.cpu: Ins: 6306136064, 177e00000 @ PE 7
39999500: global: Predictor bit: 0	 Opcode: 7
39999500: global: CGRA: NOOP.Execute()
39999500: global: Distance is: 0
39999500: system.cpu: Ins: 6306136064, 177e00000 @ PE 8
39999500: global: Predictor bit: 0	 Opcode: 7
39999500: global: CGRA: NOOP.Execute()
39999500: global: Distance is: 0
39999500: system.cpu: Ins: 6306136064, 177e00000 @ PE 9
39999500: global: Predictor bit: 0	 Opcode: 7
39999500: global: CGRA: NOOP.Execute()
39999500: global: Distance is: 0
39999500: system.cpu: Ins: 6306136064, 177e00000 @ PE 10
39999500: global: Predictor bit: 0	 Opcode: 7
39999500: global: CGRA: NOOP.Execute()
39999500: global: Distance is: 0
39999500: system.cpu: Ins: 6306136064, 177e00000 @ PE 11
39999500: global: Predictor bit: 0	 Opcode: 7
39999500: global: CGRA: NOOP.Execute()
39999500: global: Distance is: 0
39999500: system.cpu: Ins: 6306136064, 177e00000 @ PE 12
39999500: global: Predictor bit: 0	 Opcode: 7
39999500: global: CGRA: NOOP.Execute()
39999500: global: Distance is: 0
39999500: system.cpu: Ins: 6306136064, 177e00000 @ PE 13
39999500: global: Predictor bit: 0	 Opcode: 7
39999500: global: CGRA: NOOP.Execute()
39999500: global: Distance is: 0
39999500: system.cpu: Ins: 6306136064, 177e00000 @ PE 14
39999500: global: Predictor bit: 0	 Opcode: 7
39999500: global: CGRA: NOOP.Execute()
39999500: global: Distance is: 0
39999500: system.cpu: Ins: 6306136064, 177e00000 @ PE 15
39999500: global: Predictor bit: 0	 Opcode: 7
39999500: global: CGRA: NOOP.Execute()
39999500: global: Distance is: 0

************* MEM READ *************
Row: 0 - address: 632384 - data: 6
39999500: system.cpu: CGRA advanceTime complete.
39999500: system.cpu: *******IN ADVANCE PC******
39999500: system.cpu: build/ARM/cpu/atomiccgra/atomiccgra.cc,CGRA_advancePC,1759,PC:a4d70
39999500: system.cpu: Passed Complete Drain().
39999500: system.cpu: Make latency status=1.
39999500: system.cpu: Inside status idle.
39999500: system.cpu: Exiting schedule events
39999500: system.cpu: We are here after Execution
40000000: system.cpu: Inside CGRA Execution else statement.
40000000: system.cpu: Inside CGRA_Execution block.
40000000: system.cpu: 
CALL IN NOW CGRA_Execution.
40000000: system.cpu: 

 ~~~~~~ CGRA_Execution @ numCycles = 23 ~~~~~~~
40000000: global: 
******** DB INPUT2 ReadAddress = 0************
40000000: global: 
READ: REG NUMBER: 0 dist: 0
40000000: global: Rotating REGS data: 0	REG: 0
40000000: system.cpu: Ins: 5335269376, 13e01c000 @ PE 0
40000000: global: Predictor bit: 1	 Opcode: 3
40000000: global: 
Input1 = 0	Input2 = 0
40000000: global: 
******** LDUI IN THIS PE 0************
40000000: global: 
************** WE *****************
40000000: global: 
WRITE: REG NUMBER: 3 dist: 0
40000000: global: R0: 0	R1: 0	R2: 6	R3: 632384
40000000: global: 
WRITE: FPREG NUMBER: 3 dist: 0
40000000: global: FPR0: 0	FPR1: 0	FPR2: 6	FPR3: 632384
40000000: global: Writing output 632384 to register 3
40000000: global: Distance is: 0
40000000: system.cpu: Ins: 6306136064, 177e00000 @ PE 1
40000000: global: Predictor bit: 0	 Opcode: 7
40000000: global: CGRA: NOOP.Execute()
40000000: global: Distance is: 0
40000000: system.cpu: Ins: 6306136064, 177e00000 @ PE 2
40000000: global: Predictor bit: 0	 Opcode: 7
40000000: global: CGRA: NOOP.Execute()
40000000: global: Distance is: 0
40000000: system.cpu: Ins: 6306136064, 177e00000 @ PE 3
40000000: global: Predictor bit: 0	 Opcode: 7
40000000: global: CGRA: NOOP.Execute()
40000000: global: Distance is: 0
40000000: system.cpu: Ins: 6306136064, 177e00000 @ PE 4
40000000: global: Predictor bit: 0	 Opcode: 7
40000000: global: CGRA: NOOP.Execute()
40000000: global: Distance is: 0
40000000: system.cpu: Ins: 6306136064, 177e00000 @ PE 5
40000000: global: Predictor bit: 0	 Opcode: 7
40000000: global: CGRA: NOOP.Execute()
40000000: global: Distance is: 0
40000000: system.cpu: Ins: 6306136064, 177e00000 @ PE 6
40000000: global: Predictor bit: 0	 Opcode: 7
40000000: global: CGRA: NOOP.Execute()
40000000: global: Distance is: 0
40000000: system.cpu: Ins: 6306136064, 177e00000 @ PE 7
40000000: global: Predictor bit: 0	 Opcode: 7
40000000: global: CGRA: NOOP.Execute()
40000000: global: Distance is: 0
40000000: system.cpu: Ins: 6306136064, 177e00000 @ PE 8
40000000: global: Predictor bit: 0	 Opcode: 7
40000000: global: CGRA: NOOP.Execute()
40000000: global: Distance is: 0
40000000: system.cpu: Ins: 6306136064, 177e00000 @ PE 9
40000000: global: Predictor bit: 0	 Opcode: 7
40000000: global: CGRA: NOOP.Execute()
40000000: global: Distance is: 0
40000000: system.cpu: Ins: 6306136064, 177e00000 @ PE 10
40000000: global: Predictor bit: 0	 Opcode: 7
40000000: global: CGRA: NOOP.Execute()
40000000: global: Distance is: 0
40000000: system.cpu: Ins: 6306136064, 177e00000 @ PE 11
40000000: global: Predictor bit: 0	 Opcode: 7
40000000: global: CGRA: NOOP.Execute()
40000000: global: Distance is: 0
40000000: system.cpu: Ins: 6306136064, 177e00000 @ PE 12
40000000: global: Predictor bit: 0	 Opcode: 7
40000000: global: CGRA: NOOP.Execute()
40000000: global: Distance is: 0
40000000: system.cpu: Ins: 6306136064, 177e00000 @ PE 13
40000000: global: Predictor bit: 0	 Opcode: 7
40000000: global: CGRA: NOOP.Execute()
40000000: global: Distance is: 0
40000000: system.cpu: Ins: 6306136064, 177e00000 @ PE 14
40000000: global: Predictor bit: 0	 Opcode: 7
40000000: global: CGRA: NOOP.Execute()
40000000: global: Distance is: 0
40000000: system.cpu: Ins: 6306136064, 177e00000 @ PE 15
40000000: global: Predictor bit: 0	 Opcode: 7
40000000: global: CGRA: NOOP.Execute()
40000000: global: Distance is: 0

************* MEM READ *************
Row: 0 - address: 632384 - data: 6
40000000: system.cpu: CGRA advanceTime complete.
40000000: system.cpu: *******IN ADVANCE PC******
40000000: system.cpu: build/ARM/cpu/atomiccgra/atomiccgra.cc,CGRA_advancePC,1759,PC:a4df0
40000000: system.cpu: Passed Complete Drain().
40000000: system.cpu: Make latency status=1.
40000000: system.cpu: Inside status idle.
40000000: system.cpu: Exiting schedule events
40000000: system.cpu: We are here after Execution
40000500: system.cpu: Inside CGRA Execution else statement.
40000500: system.cpu: Inside CGRA_Execution block.
40000500: system.cpu: 
CALL IN NOW CGRA_Execution.
40000500: system.cpu: 

 ~~~~~~ CGRA_Execution @ numCycles = 25 ~~~~~~~
40000500: global: 
******** DB INPUT1 ReadAddress = 3************
40000500: system.cpu: Ins: 6053961732, 168d82004 @ PE 0
40000500: global: Predictor bit: 1	 Opcode: 6
40000500: global: 
Input1 = 632384	Input2 = 4
40000500: global: 
******** ADDRESS GENERATED IN THIS PE 632384************
40000500: global: 
*********Setting Address 9a640 ******
40000500: global: Distance is: 1
40000500: system.cpu: Ins: 6306136064, 177e00000 @ PE 1
40000500: global: Predictor bit: 0	 Opcode: 7
40000500: global: CGRA: NOOP.Execute()
40000500: global: Distance is: 0
40000500: system.cpu: Ins: 6306136064, 177e00000 @ PE 2
40000500: global: Predictor bit: 0	 Opcode: 7
40000500: global: CGRA: NOOP.Execute()
40000500: global: Distance is: 0
40000500: system.cpu: Ins: 6306136064, 177e00000 @ PE 3
40000500: global: Predictor bit: 0	 Opcode: 7
40000500: global: CGRA: NOOP.Execute()
40000500: global: Distance is: 0
40000500: system.cpu: Ins: 6306136064, 177e00000 @ PE 4
40000500: global: Predictor bit: 0	 Opcode: 7
40000500: global: CGRA: NOOP.Execute()
40000500: global: Distance is: 0
40000500: system.cpu: Ins: 6306136064, 177e00000 @ PE 5
40000500: global: Predictor bit: 0	 Opcode: 7
40000500: global: CGRA: NOOP.Execute()
40000500: global: Distance is: 0
40000500: system.cpu: Ins: 6306136064, 177e00000 @ PE 6
40000500: global: Predictor bit: 0	 Opcode: 7
40000500: global: CGRA: NOOP.Execute()
40000500: global: Distance is: 0
40000500: system.cpu: Ins: 6306136064, 177e00000 @ PE 7
40000500: global: Predictor bit: 0	 Opcode: 7
40000500: global: CGRA: NOOP.Execute()
40000500: global: Distance is: 0
40000500: system.cpu: Ins: 6306136064, 177e00000 @ PE 8
40000500: global: Predictor bit: 0	 Opcode: 7
40000500: global: CGRA: NOOP.Execute()
40000500: global: Distance is: 0
40000500: system.cpu: Ins: 6306136064, 177e00000 @ PE 9
40000500: global: Predictor bit: 0	 Opcode: 7
40000500: global: CGRA: NOOP.Execute()
40000500: global: Distance is: 0
40000500: system.cpu: Ins: 6306136064, 177e00000 @ PE 10
40000500: global: Predictor bit: 0	 Opcode: 7
40000500: global: CGRA: NOOP.Execute()
40000500: global: Distance is: 0
40000500: system.cpu: Ins: 6306136064, 177e00000 @ PE 11
40000500: global: Predictor bit: 0	 Opcode: 7
40000500: global: CGRA: NOOP.Execute()
40000500: global: Distance is: 0
40000500: system.cpu: Ins: 6306136064, 177e00000 @ PE 12
40000500: global: Predictor bit: 0	 Opcode: 7
40000500: global: CGRA: NOOP.Execute()
40000500: global: Distance is: 0
40000500: system.cpu: Ins: 6306136064, 177e00000 @ PE 13
40000500: global: Predictor bit: 0	 Opcode: 7
40000500: global: CGRA: NOOP.Execute()
40000500: global: Distance is: 0
40000500: system.cpu: Ins: 6306136064, 177e00000 @ PE 14
40000500: global: Predictor bit: 0	 Opcode: 7
40000500: global: CGRA: NOOP.Execute()
40000500: global: Distance is: 0
40000500: system.cpu: Ins: 6306136064, 177e00000 @ PE 15
40000500: global: Predictor bit: 0	 Opcode: 7
40000500: global: CGRA: NOOP.Execute()
40000500: global: Distance is: 0

************* MEM READ *************
Row: 0 - address: 632384 - data: 6
40000500: system.cpu: CGRA advanceTime complete.
40000500: system.cpu: *******IN ADVANCE PC******
40000500: system.cpu: build/ARM/cpu/atomiccgra/atomiccgra.cc,CGRA_advancePC,1759,PC:a4e70
40000500: system.cpu: Passed Complete Drain().
40000500: system.cpu: Make latency status=1.
40000500: system.cpu: Inside status idle.
40000500: system.cpu: Exiting schedule events
40000500: system.cpu: We are here after Execution
40001000: system.cpu: Inside CGRA Execution else statement.
40001000: system.cpu: Inside CGRA_Execution block.
40001000: system.cpu: 
CALL IN NOW CGRA_Execution.
40001000: system.cpu: 

 ~~~~~~ CGRA_Execution @ numCycles = 27 ~~~~~~~
40001000: global: 
******** DB INPUT1 = 6************
40001000: system.cpu: Ins: 4391550976, 105c1c000 @ PE 0
40001000: global: Predictor bit: 0	 Opcode: 0
40001000: global: 
Input1 = 6	Input2 = 0
40001000: global: 
******** SUM IN THIS PE 6************
40001000: global: 
WRITE: REG NUMBER: 3 dist: 1
40001000: global: R0: 0	R1: 0	R2: 6	R3: 6
40001000: global: 
WRITE: FPREG NUMBER: 3 dist: 1
40001000: global: FPR0: 0	FPR1: 0	FPR2: 6	FPR3: 6
40001000: global: Writing output 6 to register 3
40001000: global: Distance is: 1
40001000: system.cpu: Ins: 6306136064, 177e00000 @ PE 1
40001000: global: Predictor bit: 0	 Opcode: 7
40001000: global: CGRA: NOOP.Execute()
40001000: global: Distance is: 0
40001000: system.cpu: Ins: 6306136064, 177e00000 @ PE 2
40001000: global: Predictor bit: 0	 Opcode: 7
40001000: global: CGRA: NOOP.Execute()
40001000: global: Distance is: 0
40001000: system.cpu: Ins: 6306136064, 177e00000 @ PE 3
40001000: global: Predictor bit: 0	 Opcode: 7
40001000: global: CGRA: NOOP.Execute()
40001000: global: Distance is: 0
40001000: system.cpu: Ins: 6306136064, 177e00000 @ PE 4
40001000: global: Predictor bit: 0	 Opcode: 7
40001000: global: CGRA: NOOP.Execute()
40001000: global: Distance is: 0
40001000: system.cpu: Ins: 6306136064, 177e00000 @ PE 5
40001000: global: Predictor bit: 0	 Opcode: 7
40001000: global: CGRA: NOOP.Execute()
40001000: global: Distance is: 0
40001000: system.cpu: Ins: 6306136064, 177e00000 @ PE 6
40001000: global: Predictor bit: 0	 Opcode: 7
40001000: global: CGRA: NOOP.Execute()
40001000: global: Distance is: 0
40001000: system.cpu: Ins: 6306136064, 177e00000 @ PE 7
40001000: global: Predictor bit: 0	 Opcode: 7
40001000: global: CGRA: NOOP.Execute()
40001000: global: Distance is: 0
40001000: system.cpu: Ins: 6306136064, 177e00000 @ PE 8
40001000: global: Predictor bit: 0	 Opcode: 7
40001000: global: CGRA: NOOP.Execute()
40001000: global: Distance is: 0
40001000: system.cpu: Ins: 6306136064, 177e00000 @ PE 9
40001000: global: Predictor bit: 0	 Opcode: 7
40001000: global: CGRA: NOOP.Execute()
40001000: global: Distance is: 0
40001000: system.cpu: Ins: 6306136064, 177e00000 @ PE 10
40001000: global: Predictor bit: 0	 Opcode: 7
40001000: global: CGRA: NOOP.Execute()
40001000: global: Distance is: 0
40001000: system.cpu: Ins: 6306136064, 177e00000 @ PE 11
40001000: global: Predictor bit: 0	 Opcode: 7
40001000: global: CGRA: NOOP.Execute()
40001000: global: Distance is: 0
40001000: system.cpu: Ins: 6306136064, 177e00000 @ PE 12
40001000: global: Predictor bit: 0	 Opcode: 7
40001000: global: CGRA: NOOP.Execute()
40001000: global: Distance is: 0
40001000: system.cpu: Ins: 6306136064, 177e00000 @ PE 13
40001000: global: Predictor bit: 0	 Opcode: 7
40001000: global: CGRA: NOOP.Execute()
40001000: global: Distance is: 0
40001000: system.cpu: Ins: 6306136064, 177e00000 @ PE 14
40001000: global: Predictor bit: 0	 Opcode: 7
40001000: global: CGRA: NOOP.Execute()
40001000: global: Distance is: 0
40001000: system.cpu: Ins: 6306136064, 177e00000 @ PE 15
40001000: global: Predictor bit: 0	 Opcode: 7
40001000: global: CGRA: NOOP.Execute()
40001000: global: Distance is: 0

************* MEM READ *************
Row: 0 - address: 632384 - data: 6
40001000: system.cpu: CGRA advanceTime complete.
40001000: system.cpu: *******IN ADVANCE PC******
40001000: system.cpu: build/ARM/cpu/atomiccgra/atomiccgra.cc,CGRA_advancePC,1759,PC:a4ef0
40001000: system.cpu: Passed Complete Drain().
40001000: system.cpu: Make latency status=1.
40001000: system.cpu: Inside status idle.
40001000: system.cpu: Exiting schedule events
40001000: system.cpu: We are here after Execution
40001500: system.cpu: Inside CGRA Execution else statement.
40001500: system.cpu: Inside CGRA_Execution block.
40001500: system.cpu: 
CALL IN NOW CGRA_Execution.
40001500: system.cpu: 

 ~~~~~~ CGRA_Execution @ numCycles = 29 ~~~~~~~
40001500: global: 
******** DB INPUT2 ReadAddress = 0************
40001500: global: 
READ: REG NUMBER: 0 dist: 1
40001500: global: Rotating REGS data: 0	REG: 1
40001500: system.cpu: Ins: 4798300161, 11e004001 @ PE 0
40001500: global: Predictor bit: 1	 Opcode: 1
40001500: global: 
Input1 = 1	Input2 = 0
40001500: global: 
******** LDI IN THIS PE 1************
40001500: global: 
************** WE *****************
40001500: global: 
WRITE: REG NUMBER: 0 dist: 1
40001500: global: 
WRITE: REG NUMBER: 0 dist: 1
40001500: global: 
WRITE PHYS REG NUMBER: 1	data: 1
40001500: global: R0: 0	R1: 1	R2: 6	R3: 6
40001500: global: 
WRITE: FPREG NUMBER: 0 dist: 1
40001500: global: 
WRITE: FPREG NUMBER: 0 dist: 1
40001500: global: 
WRITE PHYS FPREG NUMBER: 1	data: 1
40001500: global: FPR0: 0	FPR1: 1	FPR2: 6	FPR3: 6
40001500: global: Writing output 1 to register 0
40001500: global: Distance is: 1
40001500: system.cpu: Ins: 6306136064, 177e00000 @ PE 1
40001500: global: Predictor bit: 0	 Opcode: 7
40001500: global: CGRA: NOOP.Execute()
40001500: global: Distance is: 0
40001500: system.cpu: Ins: 6306136064, 177e00000 @ PE 2
40001500: global: Predictor bit: 0	 Opcode: 7
40001500: global: CGRA: NOOP.Execute()
40001500: global: Distance is: 0
40001500: system.cpu: Ins: 6306136064, 177e00000 @ PE 3
40001500: global: Predictor bit: 0	 Opcode: 7
40001500: global: CGRA: NOOP.Execute()
40001500: global: Distance is: 0
40001500: system.cpu: Ins: 6306136064, 177e00000 @ PE 4
40001500: global: Predictor bit: 0	 Opcode: 7
40001500: global: CGRA: NOOP.Execute()
40001500: global: Distance is: 0
40001500: system.cpu: Ins: 6306136064, 177e00000 @ PE 5
40001500: global: Predictor bit: 0	 Opcode: 7
40001500: global: CGRA: NOOP.Execute()
40001500: global: Distance is: 0
40001500: system.cpu: Ins: 6306136064, 177e00000 @ PE 6
40001500: global: Predictor bit: 0	 Opcode: 7
40001500: global: CGRA: NOOP.Execute()
40001500: global: Distance is: 0
40001500: system.cpu: Ins: 6306136064, 177e00000 @ PE 7
40001500: global: Predictor bit: 0	 Opcode: 7
40001500: global: CGRA: NOOP.Execute()
40001500: global: Distance is: 0
40001500: system.cpu: Ins: 6306136064, 177e00000 @ PE 8
40001500: global: Predictor bit: 0	 Opcode: 7
40001500: global: CGRA: NOOP.Execute()
40001500: global: Distance is: 0
40001500: system.cpu: Ins: 6306136064, 177e00000 @ PE 9
40001500: global: Predictor bit: 0	 Opcode: 7
40001500: global: CGRA: NOOP.Execute()
40001500: global: Distance is: 0
40001500: system.cpu: Ins: 6306136064, 177e00000 @ PE 10
40001500: global: Predictor bit: 0	 Opcode: 7
40001500: global: CGRA: NOOP.Execute()
40001500: global: Distance is: 0
40001500: system.cpu: Ins: 6306136064, 177e00000 @ PE 11
40001500: global: Predictor bit: 0	 Opcode: 7
40001500: global: CGRA: NOOP.Execute()
40001500: global: Distance is: 0
40001500: system.cpu: Ins: 6306136064, 177e00000 @ PE 12
40001500: global: Predictor bit: 0	 Opcode: 7
40001500: global: CGRA: NOOP.Execute()
40001500: global: Distance is: 0
40001500: system.cpu: Ins: 6306136064, 177e00000 @ PE 13
40001500: global: Predictor bit: 0	 Opcode: 7
40001500: global: CGRA: NOOP.Execute()
40001500: global: Distance is: 0
40001500: system.cpu: Ins: 6306136064, 177e00000 @ PE 14
40001500: global: Predictor bit: 0	 Opcode: 7
40001500: global: CGRA: NOOP.Execute()
40001500: global: Distance is: 0
40001500: system.cpu: Ins: 6306136064, 177e00000 @ PE 15
40001500: global: Predictor bit: 0	 Opcode: 7
40001500: global: CGRA: NOOP.Execute()
40001500: global: Distance is: 0

************* MEM READ *************
Row: 0 - address: 632384 - data: 6
40001500: system.cpu: CGRA advanceTime complete.
40001500: system.cpu: *******IN ADVANCE PC******
40001500: system.cpu: build/ARM/cpu/atomiccgra/atomiccgra.cc,CGRA_advancePC,1759,PC:a4f70
40001500: system.cpu: Passed Complete Drain().
40001500: system.cpu: Make latency status=1.
40001500: system.cpu: Inside status idle.
40001500: system.cpu: Exiting schedule events
40001500: system.cpu: We are here after Execution
40002000: system.cpu: Inside CGRA Execution else statement.
40002000: system.cpu: Inside CGRA_Execution block.
40002000: system.cpu: 
CALL IN NOW CGRA_Execution.
40002000: system.cpu: 

 ~~~~~~ CGRA_Execution @ numCycles = 31 ~~~~~~~
40002000: global: 
******** DB INPUT2 ReadAddress = 0************
40002000: global: 
READ: REG NUMBER: 0 dist: 1
40002000: global: Rotating REGS data: 1	REG: 1
40002000: global: 
******** DB INPUT1 ReadAddress = 0************
40002000: global: 
******** DB INPUT2 ReadAddress = 0************
40002000: global: 
******** DB INPUT1 ReadAddress = 0************
40002000: global: 
******** DB INPUT2 ReadAddress = 0************
40002000: global: 
******** DB INPUT1 ReadAddress = 0************
40002000: global: 
******** DB INPUT2 ReadAddress = 0************
40002000: global: 
******** DB INPUT1 ReadAddress = 0************
40002000: global: 
******** DB INPUT2 ReadAddress = 0************
40002000: global: 
******** DB INPUT1 ReadAddress = 0************
40002000: global: 
******** DB INPUT2 ReadAddress = 0************
40002000: global: 
******** DB INPUT1 ReadAddress = 0************
40002000: global: 
******** DB INPUT2 ReadAddress = 0************
40002000: global: 
******** DB INPUT1 ReadAddress = 0************
40002000: global: 
******** DB INPUT2 ReadAddress = 0************
40002000: global: 
******** DB INPUT1 ReadAddress = 0************
40002000: global: 
******** DB INPUT2 ReadAddress = 0************
40002000: global: 
******** DB INPUT1 ReadAddress = 0************
40002000: global: 
******** DB INPUT2 ReadAddress = 0************
40002000: global: 
******** DB INPUT1 ReadAddress = 0************
40002000: global: 
******** DB INPUT2 ReadAddress = 0************
40002000: global: 
******** DB INPUT1 ReadAddress = 0************
40002000: global: 
******** DB INPUT2 ReadAddress = 0************
40002000: global: 
******** DB INPUT1 ReadAddress = 0************
40002000: global: 
******** DB INPUT2 ReadAddress = 0************
40002000: global: 
******** DB INPUT1 ReadAddress = 0************
40002000: global: 
******** DB INPUT2 ReadAddress = 0************
40002000: global: 
******** DB INPUT1 ReadAddress = 0************
40002000: global: 
******** DB INPUT2 ReadAddress = 0************
40002000: system.cpu: Ins: 5066735616, 12e004000 @ PE 0
40002000: global: Predictor bit: 1	 Opcode: 2
40002000: global: 
Input1 = 0	Input2 = 1
40002000: global: 
******** LDMI IN THIS PE 0************
40002000: global: 
************** WE *****************
40002000: global: 
READ: REG NUMBER: 0 dist: 1
40002000: global: Rotating REGS data: 1	REG: 1
40002000: global: 
WRITE: REG NUMBER: 0 dist: 1
40002000: global: 
WRITE: REG NUMBER: 0 dist: 1
40002000: global: 
WRITE PHYS REG NUMBER: 1	data: 1
40002000: global: R0: 0	R1: 1	R2: 6	R3: 6
40002000: global: 
WRITE: FPREG NUMBER: 0 dist: 1
40002000: global: 
WRITE: FPREG NUMBER: 0 dist: 1
40002000: global: 
WRITE PHYS FPREG NUMBER: 1	data: 1
40002000: global: FPR0: 0	FPR1: 1	FPR2: 6	FPR3: 6
40002000: global: Writing output 1 to register 0
40002000: global: Distance is: 1
40002000: system.cpu: Ins: 6306136064, 177e00000 @ PE 1
40002000: global: Predictor bit: 0	 Opcode: 7
40002000: global: CGRA: NOOP.Execute()
40002000: global: Distance is: 0
40002000: system.cpu: Ins: 0, 0 @ PE 2
40002000: global: Predictor bit: 0	 Opcode: 0
40002000: global: 
Input1 = 0	Input2 = 0
40002000: global: 
******** SUM IN THIS PE 0************
40002000: global: Distance is: 0
40002000: system.cpu: Ins: 0, 0 @ PE 3
40002000: global: Predictor bit: 0	 Opcode: 0
40002000: global: 
Input1 = 0	Input2 = 0
40002000: global: 
******** SUM IN THIS PE 0************
40002000: global: Distance is: 0
40002000: system.cpu: Ins: 0, 0 @ PE 4
40002000: global: Predictor bit: 0	 Opcode: 0
40002000: global: 
Input1 = 0	Input2 = 0
40002000: global: 
******** SUM IN THIS PE 0************
40002000: global: Distance is: 0
40002000: system.cpu: Ins: 0, 0 @ PE 5
40002000: global: Predictor bit: 0	 Opcode: 0
40002000: global: 
Input1 = 0	Input2 = 0
40002000: global: 
******** SUM IN THIS PE 0************
40002000: global: Distance is: 0
40002000: system.cpu: Ins: 0, 0 @ PE 6
40002000: global: Predictor bit: 0	 Opcode: 0
40002000: global: 
Input1 = 0	Input2 = 0
40002000: global: 
******** SUM IN THIS PE 0************
40002000: global: Distance is: 0
40002000: system.cpu: Ins: 0, 0 @ PE 7
40002000: global: Predictor bit: 0	 Opcode: 0
40002000: global: 
Input1 = 0	Input2 = 0
40002000: global: 
******** SUM IN THIS PE 0************
40002000: global: Distance is: 0
40002000: system.cpu: Ins: 0, 0 @ PE 8
40002000: global: Predictor bit: 0	 Opcode: 0
40002000: global: 
Input1 = 0	Input2 = 0
40002000: global: 
******** SUM IN THIS PE 0************
40002000: global: Distance is: 0
40002000: system.cpu: Ins: 0, 0 @ PE 9
40002000: global: Predictor bit: 0	 Opcode: 0
40002000: global: 
Input1 = 0	Input2 = 0
40002000: global: 
******** SUM IN THIS PE 0************
40002000: global: Distance is: 0
40002000: system.cpu: Ins: 0, 0 @ PE 10
40002000: global: Predictor bit: 0	 Opcode: 0
40002000: global: 
Input1 = 0	Input2 = 0
40002000: global: 
******** SUM IN THIS PE 0************
40002000: global: Distance is: 0
40002000: system.cpu: Ins: 0, 0 @ PE 11
40002000: global: Predictor bit: 0	 Opcode: 0
40002000: global: 
Input1 = 0	Input2 = 0
40002000: global: 
******** SUM IN THIS PE 0************
40002000: global: Distance is: 0
40002000: system.cpu: Ins: 0, 0 @ PE 12
40002000: global: Predictor bit: 0	 Opcode: 0
40002000: global: 
Input1 = 0	Input2 = 0
40002000: global: 
******** SUM IN THIS PE 0************
40002000: global: Distance is: 0
40002000: system.cpu: Ins: 0, 0 @ PE 13
40002000: global: Predictor bit: 0	 Opcode: 0
40002000: global: 
Input1 = 0	Input2 = 0
40002000: global: 
******** SUM IN THIS PE 0************
40002000: global: Distance is: 0
40002000: system.cpu: Ins: 0, 0 @ PE 14
40002000: global: Predictor bit: 0	 Opcode: 0
40002000: global: 
Input1 = 0	Input2 = 0
40002000: global: 
******** SUM IN THIS PE 0************
40002000: global: Distance is: 0
40002000: system.cpu: Ins: 0, 0 @ PE 15
40002000: global: Predictor bit: 0	 Opcode: 0
40002000: global: 
Input1 = 0	Input2 = 0
40002000: global: 
******** SUM IN THIS PE 0************
40002000: global: Distance is: 0

************* MEM READ *************
Row: 0 - address: 632384 - data: 6
40002000: system.cpu: CGRA advanceTime complete.
40002000: system.cpu: *******IN ADVANCE PC******
40002000: system.cpu: build/ARM/cpu/atomiccgra/atomiccgra.cc,CGRA_advancePC,1759,PC:a4ff0
40002000: system.cpu: Passed Complete Drain().
40002000: system.cpu: Make latency status=1.
40002000: system.cpu: Inside status idle.
40002000: system.cpu: Exiting schedule events
40002000: system.cpu: We are here after Execution
40002500: system.cpu: Inside CGRA Execution else statement.
40002500: system.cpu: Inside CGRA_Execution block.
40002500: system.cpu: 
CALL IN NOW CGRA_Execution.
40002500: system.cpu: 

 ~~~~~~ CGRA_Execution @ numCycles = 33 ~~~~~~~
40002500: global: 
******** DB INPUT2 ReadAddress = 0************
40002500: global: 
READ: REG NUMBER: 0 dist: 0
40002500: global: Rotating REGS data: 0	REG: 0
40002500: system.cpu: Ins: 5335171072, 13e004000 @ PE 0
40002500: global: Predictor bit: 1	 Opcode: 3
40002500: global: 
Input1 = 0	Input2 = 0
40002500: global: 
******** LDUI IN THIS PE 0************
40002500: global: 
************** WE *****************
40002500: global: 
READ: REG NUMBER: 0 dist: 0
40002500: global: Rotating REGS data: 0	REG: 0
40002500: global: 
WRITE: REG NUMBER: 0 dist: 0
40002500: global: 
WRITE: REG NUMBER: 0 dist: 0
40002500: global: 
WRITE PHYS REG NUMBER: 0	data: 0
40002500: global: R0: 0	R1: 1	R2: 6	R3: 6
40002500: global: 
WRITE: FPREG NUMBER: 0 dist: 0
40002500: global: 
WRITE: FPREG NUMBER: 0 dist: 0
40002500: global: 
WRITE PHYS FPREG NUMBER: 0	data: 0
40002500: global: FPR0: 0	FPR1: 1	FPR2: 6	FPR3: 6
40002500: global: Writing output 0 to register 0
40002500: global: Distance is: 0
40002500: system.cpu: Ins: 6306136064, 177e00000 @ PE 1
40002500: global: Predictor bit: 0	 Opcode: 7
40002500: global: CGRA: NOOP.Execute()
40002500: global: Distance is: 0
40002500: system.cpu: Ins: 6306136064, 177e00000 @ PE 2
40002500: global: Predictor bit: 0	 Opcode: 7
40002500: global: CGRA: NOOP.Execute()
40002500: global: Distance is: 0
40002500: system.cpu: Ins: 6306136064, 177e00000 @ PE 3
40002500: global: Predictor bit: 0	 Opcode: 7
40002500: global: CGRA: NOOP.Execute()
40002500: global: Distance is: 0
40002500: system.cpu: Ins: 6306136064, 177e00000 @ PE 4
40002500: global: Predictor bit: 0	 Opcode: 7
40002500: global: CGRA: NOOP.Execute()
40002500: global: Distance is: 0
40002500: system.cpu: Ins: 6306136064, 177e00000 @ PE 5
40002500: global: Predictor bit: 0	 Opcode: 7
40002500: global: CGRA: NOOP.Execute()
40002500: global: Distance is: 0
40002500: system.cpu: Ins: 6306136064, 177e00000 @ PE 6
40002500: global: Predictor bit: 0	 Opcode: 7
40002500: global: CGRA: NOOP.Execute()
40002500: global: Distance is: 0
40002500: system.cpu: Ins: 6306136064, 177e00000 @ PE 7
40002500: global: Predictor bit: 0	 Opcode: 7
40002500: global: CGRA: NOOP.Execute()
40002500: global: Distance is: 0
40002500: system.cpu: Ins: 6306136064, 177e00000 @ PE 8
40002500: global: Predictor bit: 0	 Opcode: 7
40002500: global: CGRA: NOOP.Execute()
40002500: global: Distance is: 0
40002500: system.cpu: Ins: 6306136064, 177e00000 @ PE 9
40002500: global: Predictor bit: 0	 Opcode: 7
40002500: global: CGRA: NOOP.Execute()
40002500: global: Distance is: 0
40002500: system.cpu: Ins: 6306136064, 177e00000 @ PE 10
40002500: global: Predictor bit: 0	 Opcode: 7
40002500: global: CGRA: NOOP.Execute()
40002500: global: Distance is: 0
40002500: system.cpu: Ins: 6306136064, 177e00000 @ PE 11
40002500: global: Predictor bit: 0	 Opcode: 7
40002500: global: CGRA: NOOP.Execute()
40002500: global: Distance is: 0
40002500: system.cpu: Ins: 6306136064, 177e00000 @ PE 12
40002500: global: Predictor bit: 0	 Opcode: 7
40002500: global: CGRA: NOOP.Execute()
40002500: global: Distance is: 0
40002500: system.cpu: Ins: 6306136064, 177e00000 @ PE 13
40002500: global: Predictor bit: 0	 Opcode: 7
40002500: global: CGRA: NOOP.Execute()
40002500: global: Distance is: 0
40002500: system.cpu: Ins: 6306136064, 177e00000 @ PE 14
40002500: global: Predictor bit: 0	 Opcode: 7
40002500: global: CGRA: NOOP.Execute()
40002500: global: Distance is: 0
40002500: system.cpu: Ins: 6306136064, 177e00000 @ PE 15
40002500: global: Predictor bit: 0	 Opcode: 7
40002500: global: CGRA: NOOP.Execute()
40002500: global: Distance is: 0

************* MEM READ *************
Row: 0 - address: 632384 - data: 6
40002500: system.cpu: CGRA advanceTime complete.
40002500: system.cpu: *******IN ADVANCE PC******
40002500: system.cpu: build/ARM/cpu/atomiccgra/atomiccgra.cc,CGRA_advancePC,1759,PC:a5070
40002500: system.cpu: Passed Complete Drain().
40002500: system.cpu: Make latency status=1.
40002500: system.cpu: Inside status idle.
40002500: system.cpu: Exiting schedule events
40002500: system.cpu: We are here after Execution
40003000: system.cpu: Inside CGRA Execution else statement.
40003000: system.cpu: Inside CGRA_Execution block.
40003000: system.cpu: 
CALL IN NOW CGRA_Execution.
40003000: system.cpu: 

 ~~~~~~ CGRA_Execution @ numCycles = 35 ~~~~~~~
40003000: global: 
******** DB INPUT2 ReadAddress = 0************
40003000: global: 
READ: REG NUMBER: 0 dist: 0
40003000: global: Rotating REGS data: 0	REG: 0
40003000: system.cpu: Ins: 4798337023, 11e00cfff @ PE 0
40003000: global: Predictor bit: 1	 Opcode: 1
40003000: global: 
Input1 = 4095	Input2 = 0
40003000: global: 
******** LDI IN THIS PE 4095************
40003000: global: 
************** WE *****************
40003000: global: 
WRITE: REG NUMBER: 1 dist: 0
40003000: global: 
WRITE: REG NUMBER: 1 dist: 0
40003000: global: 
WRITE PHYS REG NUMBER: 1	data: 4095
40003000: global: R0: 0	R1: 4095	R2: 6	R3: 6
40003000: global: 
WRITE: FPREG NUMBER: 1 dist: 0
40003000: global: 
WRITE: FPREG NUMBER: 1 dist: 0
40003000: global: 
WRITE PHYS FPREG NUMBER: 1	data: 4095
40003000: global: FPR0: 0	FPR1: 4095	FPR2: 6	FPR3: 6
40003000: global: Writing output 4095 to register 1
40003000: global: Distance is: 0
40003000: system.cpu: Ins: 6306136064, 177e00000 @ PE 1
40003000: global: Predictor bit: 0	 Opcode: 7
40003000: global: CGRA: NOOP.Execute()
40003000: global: Distance is: 0
40003000: system.cpu: Ins: 6306136064, 177e00000 @ PE 2
40003000: global: Predictor bit: 0	 Opcode: 7
[...]
40024000: global: Writing output 5059104 to register 1
40024000: global: Distance is: 0
40024000: system.cpu: Ins: 4827660288, 11fc04000 @ PE 1
40024000: global: Predictor bit: 1	 Opcode: 1
40024000: global: 
Input1 = 1	Input2 = 0
40024000: global: 
******** LDI IN THIS PE 1************
40024000: global: 
************** WE *****************
40024000: global: 
WRITE: REG NUMBER: 0 dist: 0
40024000: global: 
WRITE: REG NUMBER: 0 dist: 0
40024000: global: 
WRITE PHYS REG NUMBER: 0	data: 1
40024000: global: R0: 1	R1: 10000	R2: 0	R3: 0
40024000: global: 
WRITE: FPREG NUMBER: 0 dist: 0
40024000: global: 
WRITE: FPREG NUMBER: 0 dist: 0
40024000: global: 
WRITE PHYS FPREG NUMBER: 0	data: 1
40024000: global: FPR0: 1	FPR1: 10000	FPR2: 0	FPR3: 0
40024000: global: Writing output 1 to register 0
40024000: global: Distance is: 0
40024000: system.cpu: Ins: 6306136064, 177e00000 @ PE 2
40024000: global: Predictor bit: 0	 Opcode: 7
40024000: global: CGRA: NOOP.Execute()
40024000: global: Distance is: 0
40024000: system.cpu: Ins: 6306136064, 177e00000 @ PE 3
40024000: global: Predictor bit: 0	 Opcode: 7
40024000: global: CGRA: NOOP.Execute()
40024000: global: Distance is: 0
40024000: system.cpu: Ins: 6306136064, 177e00000 @ PE 4
40024000: global: Predictor bit: 0	 Opcode: 7
40024000: global: CGRA: NOOP.Execute()
40024000: global: Distance is: 0
40024000: system.cpu: Ins: 6306136064, 177e00000 @ PE 5
40024000: global: Predictor bit: 0	 Opcode: 7
40024000: global: CGRA: NOOP.Execute()
40024000: global: Distance is: 0
40024000: system.cpu: Ins: 6306136064, 177e00000 @ PE 6
40024000: global: Predictor bit: 0	 Opcode: 7
40024000: global: CGRA: NOOP.Execute()
40024000: global: Distance is: 0
40024000: system.cpu: Ins: 6306136064, 177e00000 @ PE 7
40024000: global: Predictor bit: 0	 Opcode: 7
40024000: global: CGRA: NOOP.Execute()
40024000: global: Distance is: 0
40024000: system.cpu: Ins: 6306136064, 177e00000 @ PE 8
40024000: global: Predictor bit: 0	 Opcode: 7
40024000: global: CGRA: NOOP.Execute()
40024000: global: Distance is: 0
40024000: system.cpu: Ins: 6306136064, 177e00000 @ PE 9
40024000: global: Predictor bit: 0	 Opcode: 7
40024000: global: CGRA: NOOP.Execute()
40024000: global: Distance is: 0
40024000: system.cpu: Ins: 6306136064, 177e00000 @ PE 10
40024000: global: Predictor bit: 0	 Opcode: 7
40024000: global: CGRA: NOOP.Execute()
40024000: global: Distance is: 0
40024000: system.cpu: Ins: 6306136064, 177e00000 @ PE 11
40024000: global: Predictor bit: 0	 Opcode: 7
40024000: global: CGRA: NOOP.Execute()
40024000: global: Distance is: 0
40024000: system.cpu: Ins: 6306136064, 177e00000 @ PE 12
40024000: global: Predictor bit: 0	 Opcode: 7
40024000: global: CGRA: NOOP.Execute()
40024000: global: Distance is: 0
40024000: system.cpu: Ins: 6306136064, 177e00000 @ PE 13
40024000: global: Predictor bit: 0	 Opcode: 7
40024000: global: CGRA: NOOP.Execute()
40024000: global: Distance is: 0
40024000: system.cpu: Ins: 6306136064, 177e00000 @ PE 14
40024000: global: Predictor bit: 0	 Opcode: 7
40024000: global: CGRA: NOOP.Execute()
40024000: global: Distance is: 0
40024000: system.cpu: Ins: 6306136064, 177e00000 @ PE 15
40024000: global: Predictor bit: 0	 Opcode: 7
40024000: global: CGRA: NOOP.Execute()
40024000: global: Distance is: 0

************* MEM READ *************
Row: 0 - address: 632384 - data: 6
40024000: system.cpu: CGRA advanceTime complete.
40024000: system.cpu: *******IN ADVANCE PC******
40024000: system.cpu: build/ARM/cpu/atomiccgra/atomiccgra.cc,CGRA_advancePC,1759,PC:a61f8
40024000: system.cpu: State = KERNEL, Cond_Reg = 0
40024000: system.cpu: 
KERNEL->EPILOG
40024000: system.cpu: Passed Complete Drain().
40024000: system.cpu: Make latency status=1.
40024000: system.cpu: Inside status idle.
40024000: system.cpu: Exiting schedule events
40024000: system.cpu: We are here after Execution
40024500: system.cpu: Inside CGRA Execution else statement.
40024500: system.cpu: Inside CGRA_Execution block.
40024500: system.cpu: 
CALL IN NOW CGRA_Execution.
40024500: system.cpu: 

 ~~~~~~ CGRA_Execution @ numCycles = 121 ~~~~~~~
40024500: global: 
******** DB INPUT2 ReadAddress = 1************
40024500: global: 
READ: REG NUMBER: 1 dist: 1
40024500: global: Rotating REGS data: 5059104	REG: 0
40024500: global: 
******** DB INPUT2 ReadAddress = 1************
40024500: system.cpu: Ins: 4412555264, 107024000 @ PE 0
40024500: global: Predictor bit: 0	 Opcode: 0
40024500: global: 
Input1 = 5059104	Input2 = 5059104
40024500: global: 
******** SUM IN THIS PE 10118208************
40024500: global: 
WRITE: REG NUMBER: 0 dist: 1
40024500: global: 
WRITE: REG NUMBER: 0 dist: 1
40024500: global: 
WRITE PHYS REG NUMBER: 1	data: 10118208
40024500: global: R0: 5059104	R1: 10118208	R2: 632388	R3: 632388
40024500: global: 
WRITE: FPREG NUMBER: 0 dist: 1
40024500: global: 
WRITE: FPREG NUMBER: 0 dist: 1
40024500: global: 
WRITE PHYS FPREG NUMBER: 1	data: 1.01182e+07
40024500: global: FPR0: 5.0591e+06	FPR1: 1.01182e+07	FPR2: 632388	FPR3: 632388
40024500: global: Writing output 10118208 to register 0
40024500: global: Distance is: 1
40024500: system.cpu: Ins: 8439070720, 1f7020000 @ PE 1
40024500: global: Predictor bit: 0	 Opcode: 15
40024500: global: 
Input1 = 1	Input2 = 10000
40024500: global: 
******** Less Than IN THIS PE 1************
40024500: global: Controller_Reg reset
40024500: global: Distance is: 0
40024500: system.cpu: Ins: 6306136064, 177e00000 @ PE 2
40024500: global: Predictor bit: 0	 Opcode: 7
40024500: global: CGRA: NOOP.Execute()
40024500: global: Distance is: 0
40024500: system.cpu: Ins: 8099201026, 1e2c00002 @ PE 3
40024500: global: Predictor bit: 0	 Opcode: 14
40024500: global: 
Input1 = 5059104	Input2 = 2
40024500: global: 
******** Greater Than IN THIS PE 1************
40024500: global: Controller_Reg reset
40024500: global: Distance is: 0
40024500: system.cpu: Ins: 6306136064, 177e00000 @ PE 4
40024500: global: Predictor bit: 0	 Opcode: 7
40024500: global: CGRA: NOOP.Execute()
40024500: global: Distance is: 0
40024500: system.cpu: Ins: 6306136064, 177e00000 @ PE 5
40024500: global: Predictor bit: 0	 Opcode: 7
40024500: global: CGRA: NOOP.Execute()
40024500: global: Distance is: 0
40024500: system.cpu: Ins: 6306136064, 177e00000 @ PE 6
40024500: global: Predictor bit: 0	 Opcode: 7
40024500: global: CGRA: NOOP.Execute()
40024500: global: Distance is: 0
40024500: system.cpu: Ins: 6306136064, 177e00000 @ PE 7
40024500: global: Predictor bit: 0	 Opcode: 7
40024500: global: CGRA: NOOP.Execute()
40024500: global: Distance is: 0
40024500: system.cpu: Ins: 6306136064, 177e00000 @ PE 8
40024500: global: Predictor bit: 0	 Opcode: 7
40024500: global: CGRA: NOOP.Execute()
40024500: global: Distance is: 0
40024500: system.cpu: Ins: 6306136064, 177e00000 @ PE 9
40024500: global: Predictor bit: 0	 Opcode: 7
40024500: global: CGRA: NOOP.Execute()
40024500: global: Distance is: 0
40024500: system.cpu: Ins: 6306136064, 177e00000 @ PE 10
40024500: global: Predictor bit: 0	 Opcode: 7
40024500: global: CGRA: NOOP.Execute()
40024500: global: Distance is: 0
40024500: system.cpu: Ins: 6306136064, 177e00000 @ PE 11
40024500: global: Predictor bit: 0	 Opcode: 7
40024500: global: CGRA: NOOP.Execute()
40024500: global: Distance is: 0
40024500: system.cpu: Ins: 6306136064, 177e00000 @ PE 12
40024500: global: Predictor bit: 0	 Opcode: 7
40024500: global: CGRA: NOOP.Execute()
40024500: global: Distance is: 0
40024500: system.cpu: Ins: 6306136064, 177e00000 @ PE 13
40024500: global: Predictor bit: 0	 Opcode: 7
40024500: global: CGRA: NOOP.Execute()
40024500: global: Distance is: 0
40024500: system.cpu: Ins: 6306136064, 177e00000 @ PE 14
40024500: global: Predictor bit: 0	 Opcode: 7
40024500: global: CGRA: NOOP.Execute()
40024500: global: Distance is: 0
40024500: system.cpu: Ins: 6306136064, 177e00000 @ PE 15
40024500: global: Predictor bit: 0	 Opcode: 7
40024500: global: CGRA: NOOP.Execute()
40024500: global: Distance is: 0

************* MEM READ *************
Row: 0 - address: 632384 - data: 6
40024500: system.cpu: CGRA advanceTime complete.
40024500: system.cpu: *******IN ADVANCE PC******
40024500: system.cpu: build/ARM/cpu/atomiccgra/atomiccgra.cc,CGRA_advancePC,1759,PC:a4668
40024500: system.cpu: Passed Complete Drain().
40024500: system.cpu: Make latency status=1.
40024500: system.cpu: Inside status idle.
40024500: system.cpu: Exiting schedule events
40024500: system.cpu: We are here after Execution
40025000: system.cpu: Inside CGRA Execution else statement.
40025000: system.cpu: Inside CGRA_Execution block.
40025000: system.cpu: 
CALL IN NOW CGRA_Execution.
40025000: system.cpu: 

 ~~~~~~ CGRA_Execution @ numCycles = 123 ~~~~~~~
40025000: global: 
******** DB INPUT1 ReadAddress = 0************
40025000: global: 
READ: REG NUMBER: 0 dist: 1
40025000: global: Rotating REGS data: 10118208	REG: 1
40025000: system.cpu: Ins: 5515517953, 148c02001 @ PE 0
40025000: global: Predictor bit: 1	 Opcode: 4
40025000: global: 
Input1 = 10118208	Input2 = 1	InputP = 1
40025000: global: 
******** Selection IN THIS PE 1************
40025000: global: Distance is: 1
40025000: system.cpu: Ins: 6306136064, 177e00000 @ PE 1
40025000: global: Predictor bit: 0	 Opcode: 7
40025000: global: CGRA: NOOP.Execute()
40025000: global: Distance is: 0
40025000: system.cpu: Ins: 6306136064, 177e00000 @ PE 2
40025000: global: Predictor bit: 0	 Opcode: 7
40025000: global: CGRA: NOOP.Execute()
40025000: global: Distance is: 0
40025000: system.cpu: Ins: 6306136064, 177e00000 @ PE 3
40025000: global: Predictor bit: 0	 Opcode: 7
40025000: global: CGRA: NOOP.Execute()
40025000: global: Distance is: 0
40025000: system.cpu: Ins: 6306136064, 177e00000 @ PE 4
40025000: global: Predictor bit: 0	 Opcode: 7
40025000: global: CGRA: NOOP.Execute()
40025000: global: Distance is: 0
40025000: system.cpu: Ins: 6306136064, 177e00000 @ PE 5
40025000: global: Predictor bit: 0	 Opcode: 7
40025000: global: CGRA: NOOP.Execute()
40025000: global: Distance is: 0
40025000: system.cpu: Ins: 6306136064, 177e00000 @ PE 6
40025000: global: Predictor bit: 0	 Opcode: 7
40025000: global: CGRA: NOOP.Execute()
40025000: global: Distance is: 0
40025000: system.cpu: Ins: 6306136064, 177e00000 @ PE 7
40025000: global: Predictor bit: 0	 Opcode: 7
40025000: global: CGRA: NOOP.Execute()
40025000: global: Distance is: 0
40025000: system.cpu: Ins: 6306136064, 177e00000 @ PE 8
40025000: global: Predictor bit: 0	 Opcode: 7
40025000: global: CGRA: NOOP.Execute()
40025000: global: Distance is: 0
40025000: system.cpu: Ins: 6306136064, 177e00000 @ PE 9
40025000: global: Predictor bit: 0	 Opcode: 7
40025000: global: CGRA: NOOP.Execute()
40025000: global: Distance is: 0
40025000: system.cpu: Ins: 6306136064, 177e00000 @ PE 10
40025000: global: Predictor bit: 0	 Opcode: 7
40025000: global: CGRA: NOOP.Execute()
40025000: global: Distance is: 0
40025000: system.cpu: Ins: 6306136064, 177e00000 @ PE 11
40025000: global: Predictor bit: 0	 Opcode: 7
40025000: global: CGRA: NOOP.Execute()
40025000: global: Distance is: 0
40025000: system.cpu: Ins: 6306136064, 177e00000 @ PE 12
40025000: global: Predictor bit: 0	 Opcode: 7
40025000: global: CGRA: NOOP.Execute()
40025000: global: Distance is: 0
40025000: system.cpu: Ins: 6306136064, 177e00000 @ PE 13
40025000: global: Predictor bit: 0	 Opcode: 7
40025000: global: CGRA: NOOP.Execute()
40025000: global: Distance is: 0
40025000: system.cpu: Ins: 6306136064, 177e00000 @ PE 14
40025000: global: Predictor bit: 0	 Opcode: 7
40025000: global: CGRA: NOOP.Execute()
40025000: global: Distance is: 0
40025000: system.cpu: Ins: 6306136064, 177e00000 @ PE 15
40025000: global: Predictor bit: 0	 Opcode: 7
40025000: global: CGRA: NOOP.Execute()
40025000: global: Distance is: 0

************* MEM READ *************
Row: 0 - address: 632384 - data: 6
40025000: system.cpu: CGRA advanceTime complete.
40025000: system.cpu: *******IN ADVANCE PC******
40025000: system.cpu: build/ARM/cpu/atomiccgra/atomiccgra.cc,CGRA_advancePC,1759,PC:a46e8
40025000: system.cpu: Passed Complete Drain().
40025000: system.cpu: Make latency status=1.
40025000: system.cpu: Inside status idle.
40025000: system.cpu: Exiting schedule events
40025000: system.cpu: We are here after Execution
40025500: system.cpu: Inside CGRA Execution else statement.
40025500: system.cpu: Inside CGRA_Execution block.
40025500: system.cpu: 
CALL IN NOW CGRA_Execution.
40025500: system.cpu: 

 ~~~~~~ CGRA_Execution @ numCycles = 125 ~~~~~~~
40025500: global: 
******** DB INPUT2 ReadAddress = 0************
40025500: global: 
READ: REG NUMBER: 0 dist: 0
40025500: global: Rotating REGS data: 1	REG: 0
40025500: system.cpu: Ins: 6306136064, 177e00000 @ PE 0
40025500: global: Predictor bit: 0	 Opcode: 7
40025500: global: CGRA: NOOP.Execute()
40025500: global: Distance is: 1
40025500: system.cpu: Ins: 4848615424, 121000000 @ PE 1
40025500: global: Predictor bit: 0	 Opcode: 2
40025500: global: 
Input1 = 1	Input2 = 1
40025500: global: 
******** PRODUCT IN THIS PE 1************
40025500: global: Distance is: 0
40025500: system.cpu: Ins: 6306136064, 177e00000 @ PE 2
40025500: global: Predictor bit: 0	 Opcode: 7
40025500: global: CGRA: NOOP.Execute()
40025500: global: Distance is: 0
40025500: system.cpu: Ins: 6306136064, 177e00000 @ PE 3
40025500: global: Predictor bit: 0	 Opcode: 7
40025500: global: CGRA: NOOP.Execute()
40025500: global: Distance is: 0
40025500: system.cpu: Ins: 6306136064, 177e00000 @ PE 4
40025500: global: Predictor bit: 0	 Opcode: 7
40025500: global: CGRA: NOOP.Execute()
40025500: global: Distance is: 0
40025500: system.cpu: Ins: 6306136064, 177e00000 @ PE 5
40025500: global: Predictor bit: 0	 Opcode: 7
40025500: global: CGRA: NOOP.Execute()
40025500: global: Distance is: 0
40025500: system.cpu: Ins: 6306136064, 177e00000 @ PE 6
40025500: global: Predictor bit: 0	 Opcode: 7
40025500: global: CGRA: NOOP.Execute()
40025500: global: Distance is: 0
40025500: system.cpu: Ins: 6306136064, 177e00000 @ PE 7
40025500: global: Predictor bit: 0	 Opcode: 7
40025500: global: CGRA: NOOP.Execute()
40025500: global: Distance is: 0
40025500: system.cpu: Ins: 6306136064, 177e00000 @ PE 8
40025500: global: Predictor bit: 0	 Opcode: 7
40025500: global: CGRA: NOOP.Execute()
40025500: global: Distance is: 0
40025500: system.cpu: Ins: 6306136064, 177e00000 @ PE 9
40025500: global: Predictor bit: 0	 Opcode: 7
40025500: global: CGRA: NOOP.Execute()
40025500: global: Distance is: 0
40025500: system.cpu: Ins: 6306136064, 177e00000 @ PE 10
40025500: global: Predictor bit: 0	 Opcode: 7
40025500: global: CGRA: NOOP.Execute()
40025500: global: Distance is: 0
40025500: system.cpu: Ins: 6306136064, 177e00000 @ PE 11
40025500: global: Predictor bit: 0	 Opcode: 7
40025500: global: CGRA: NOOP.Execute()
40025500: global: Distance is: 0
40025500: system.cpu: Ins: 6306136064, 177e00000 @ PE 12
40025500: global: Predictor bit: 0	 Opcode: 7
40025500: global: CGRA: NOOP.Execute()
40025500: global: Distance is: 0
40025500: system.cpu: Ins: 6306136064, 177e00000 @ PE 13
40025500: global: Predictor bit: 0	 Opcode: 7
40025500: global: CGRA: NOOP.Execute()
40025500: global: Distance is: 0
40025500: system.cpu: Ins: 6306136064, 177e00000 @ PE 14
40025500: global: Predictor bit: 0	 Opcode: 7
40025500: global: CGRA: NOOP.Execute()
40025500: global: Distance is: 0
40025500: system.cpu: Ins: 6306136064, 177e00000 @ PE 15
40025500: global: Predictor bit: 0	 Opcode: 7
40025500: global: CGRA: NOOP.Execute()
40025500: global: Distance is: 0

************* MEM READ *************
Row: 0 - address: 632384 - data: 6
40025500: system.cpu: CGRA advanceTime complete.
40025500: system.cpu: *******IN ADVANCE PC******
40025500: system.cpu: build/ARM/cpu/atomiccgra/atomiccgra.cc,CGRA_advancePC,1759,PC:a4768
40025500: system.cpu: Passed Complete Drain().
40025500: system.cpu: Make latency status=1.
40025500: system.cpu: Inside status idle.
40025500: system.cpu: Exiting schedule events
40025500: system.cpu: We are here after Execution
40026000: system.cpu: Inside CGRA Execution else statement.
40026000: system.cpu: Inside CGRA_Execution block.
40026000: system.cpu: 
CALL IN NOW CGRA_Execution.
40026000: system.cpu: 

 ~~~~~~ CGRA_Execution @ numCycles = 127 ~~~~~~~
40026000: global: 
******** DB INPUT1 ReadAddress = 2************
40026000: system.cpu: Ins: 6053437444, 168d02004 @ PE 0
40026000: global: Predictor bit: 1	 Opcode: 6
40026000: global: 
Input1 = 632388	Input2 = 4
40026000: global: 
******** ADDRESS GENERATED IN THIS PE 632388************
40026000: global: 
*********Setting Address 9a644 ******
40026000: global: Distance is: 1
40026000: system.cpu: Ins: 4424994816, 107c01000 @ PE 1
40026000: global: Predictor bit: 0	 Opcode: 0
40026000: global: 
Input1 = 1	Input2 = 0
40026000: global: 
******** SUM IN THIS PE 1************
40026000: global: 
******** DB Output 1************
40026000: global: Distance is: 0
40026000: system.cpu: Ins: 6306136064, 177e00000 @ PE 2
40026000: global: Predictor bit: 0	 Opcode: 7
40026000: global: CGRA: NOOP.Execute()
40026000: global: Distance is: 0
40026000: system.cpu: Ins: 6306136064, 177e00000 @ PE 3
40026000: global: Predictor bit: 0	 Opcode: 7
40026000: global: CGRA: NOOP.Execute()
40026000: global: Distance is: 0
40026000: system.cpu: Ins: 6306136064, 177e00000 @ PE 4
40026000: global: Predictor bit: 0	 Opcode: 7
40026000: global: CGRA: NOOP.Execute()
40026000: global: Distance is: 0
40026000: system.cpu: Ins: 6306136064, 177e00000 @ PE 5
40026000: global: Predictor bit: 0	 Opcode: 7
40026000: global: CGRA: NOOP.Execute()
40026000: global: Distance is: 0
40026000: system.cpu: Ins: 6306136064, 177e00000 @ PE 6
40026000: global: Predictor bit: 0	 Opcode: 7
40026000: global: CGRA: NOOP.Execute()
40026000: global: Distance is: 0
40026000: system.cpu: Ins: 6306136064, 177e00000 @ PE 7
40026000: global: Predictor bit: 0	 Opcode: 7
40026000: global: CGRA: NOOP.Execute()
40026000: global: Distance is: 0
40026000: system.cpu: Ins: 6306136064, 177e00000 @ PE 8
40026000: global: Predictor bit: 0	 Opcode: 7
40026000: global: CGRA: NOOP.Execute()
40026000: global: Distance is: 0
40026000: system.cpu: Ins: 6306136064, 177e00000 @ PE 9
40026000: global: Predictor bit: 0	 Opcode: 7
40026000: global: CGRA: NOOP.Execute()
40026000: global: Distance is: 0
40026000: system.cpu: Ins: 6306136064, 177e00000 @ PE 10
40026000: global: Predictor bit: 0	 Opcode: 7
40026000: global: CGRA: NOOP.Execute()
40026000: global: Distance is: 0
40026000: system.cpu: Ins: 6306136064, 177e00000 @ PE 11
40026000: global: Predictor bit: 0	 Opcode: 7
40026000: global: CGRA: NOOP.Execute()
40026000: global: Distance is: 0
40026000: system.cpu: Ins: 6306136064, 177e00000 @ PE 12
40026000: global: Predictor bit: 0	 Opcode: 7
40026000: global: CGRA: NOOP.Execute()
40026000: global: Distance is: 0
40026000: system.cpu: Ins: 6306136064, 177e00000 @ PE 13
40026000: global: Predictor bit: 0	 Opcode: 7
40026000: global: CGRA: NOOP.Execute()
40026000: global: Distance is: 0
40026000: system.cpu: Ins: 6306136064, 177e00000 @ PE 14
40026000: global: Predictor bit: 0	 Opcode: 7
40026000: global: CGRA: NOOP.Execute()
40026000: global: Distance is: 0
40026000: system.cpu: Ins: 6306136064, 177e00000 @ PE 15
40026000: global: Predictor bit: 0	 Opcode: 7
40026000: global: CGRA: NOOP.Execute()
40026000: global: Distance is: 0
40026000: system.cpu: In Memwrite with membus: 1
40026000: system.cpu: In writing INT 1	 to address:9a644	 -- &Data: 0x56094545c610	 and uint: 
40026000: system.cpu: CGRA advanceTime complete.
40026000: system.cpu: *******IN ADVANCE PC******
40026000: system.cpu: build/ARM/cpu/atomiccgra/atomiccgra.cc,CGRA_advancePC,1759,PC:a47e8
40026000: system.cpu: Passed Complete Drain().
40026000: system.cpu: Make latency status=1.
40026000: system.cpu: Inside status idle.
40026000: system.cpu: Exiting schedule events
40026000: system.cpu: We are here after Execution
40026500: system.cpu: Inside CGRA Execution else statement.
6! = 1

deleting cgra
Exiting @ tick 41886000 because exiting with last active thread context
