
---------- Begin Simulation Statistics ----------
sim_seconds                                  0.024020                       # Number of seconds simulated
sim_ticks                                 24019734000                       # Number of ticks simulated
final_tick                                24019734000                       # Number of ticks from beginning of simulation (restored from checkpoints and never reset)
sim_freq                                 1000000000000                       # Frequency of simulated ticks
host_inst_rate                                2567263                       # Simulator instruction rate (inst/s)
host_op_rate                                  3060252                       # Simulator op (including micro ops) rate (op/s)
host_tick_rate                             1530125942                       # Simulator tick rate (ticks/s)
host_mem_usage                                8513076                       # Number of bytes of host memory used
host_seconds                                    15.70                       # Real time elapsed on the host
sim_insts                                    40300483                       # Number of instructions simulated
sim_ops                                      48039426                       # Number of ops (including micro ops) simulated
system.mem_ctrls.bytes_read::cpu0.inst      161202104                       # Number of bytes read from this memory
system.mem_ctrls.bytes_read::cpu0.data       13244695                       # Number of bytes read from this memory
system.mem_ctrls.bytes_read::total          174446799                       # Number of bytes read from this memory
system.mem_ctrls.bytes_inst_read::cpu0.inst    161202104                       # Number of instructions bytes read from this memory
system.mem_ctrls.bytes_inst_read::total     161202104                       # Number of instructions bytes read from this memory
system.mem_ctrls.bytes_written::cpu0.data     11430839                       # Number of bytes written to this memory
system.mem_ctrls.bytes_written::total        11430839                       # Number of bytes written to this memory
system.mem_ctrls.num_reads::cpu0.inst        40300526                       # Number of read requests responded to by this memory
system.mem_ctrls.num_reads::cpu0.data         4662091                       # Number of read requests responded to by this memory
system.mem_ctrls.num_reads::total            44962617                       # Number of read requests responded to by this memory
system.mem_ctrls.num_writes::cpu0.data        2857975                       # Number of write requests responded to by this memory
system.mem_ctrls.num_writes::total            2857975                       # Number of write requests responded to by this memory
system.mem_ctrls.bw_read::cpu0.inst        6711236020                       # Total read bandwidth from this memory (bytes/s)
system.mem_ctrls.bw_read::cpu0.data         551408896                       # Total read bandwidth from this memory (bytes/s)
system.mem_ctrls.bw_read::total            7262644915                       # Total read bandwidth from this memory (bytes/s)
system.mem_ctrls.bw_inst_read::cpu0.inst   6711236020                       # Instruction read bandwidth from this memory (bytes/s)
system.mem_ctrls.bw_inst_read::total       6711236020                       # Instruction read bandwidth from this memory (bytes/s)
system.mem_ctrls.bw_write::cpu0.data        475893655                       # Write bandwidth from this memory (bytes/s)
system.mem_ctrls.bw_write::total            475893655                       # Write bandwidth from this memory (bytes/s)
system.mem_ctrls.bw_total::cpu0.inst       6711236020                       # Total bandwidth to/from this memory (bytes/s)
system.mem_ctrls.bw_total::cpu0.data       1027302550                       # Total bandwidth to/from this memory (bytes/s)
system.mem_ctrls.bw_total::total           7738538570                       # Total bandwidth to/from this memory (bytes/s)
system.membus.throughput                   7738538570                       # Throughput (bytes/s)
system.membus.data_through_bus              185877638                       # Total data (bytes)
system.membus.snoop_data_through_bus                0                       # Total snoop data (bytes)
system.cpu0.dtb.inst_hits                           0                       # ITB inst hits
system.cpu0.dtb.inst_misses                         0                       # ITB inst misses
system.cpu0.dtb.read_hits                           0                       # DTB read hits
system.cpu0.dtb.read_misses                         0                       # DTB read misses
system.cpu0.dtb.write_hits                          0                       # DTB write hits
system.cpu0.dtb.write_misses                        0                       # DTB write misses
system.cpu0.dtb.flush_tlb                           0                       # Number of times complete TLB was flushed
system.cpu0.dtb.flush_tlb_mva                       0                       # Number of times TLB was flushed by MVA
system.cpu0.dtb.flush_tlb_mva_asid                  0                       # Number of times TLB was flushed by MVA & ASID
system.cpu0.dtb.flush_tlb_asid                      0                       # Number of times TLB was flushed by ASID
system.cpu0.dtb.flush_entries                       0                       # Number of entries that have been flushed from TLB
system.cpu0.dtb.align_faults                        0                       # Number of TLB faults due to alignment restrictions
system.cpu0.dtb.prefetch_faults                     0                       # Number of TLB faults due to prefetch
system.cpu0.dtb.domain_faults                       0                       # Number of TLB faults due to domain restrictions
system.cpu0.dtb.perms_faults                        0                       # Number of TLB faults due to permissions restrictions
system.cpu0.dtb.read_accesses                       0                       # DTB read accesses
system.cpu0.dtb.write_accesses                      0                       # DTB write accesses
system.cpu0.dtb.inst_accesses                       0                       # ITB inst accesses
system.cpu0.dtb.hits                                0                       # DTB hits
system.cpu0.dtb.misses                              0                       # DTB misses
system.cpu0.dtb.accesses                            0                       # DTB accesses
system.cpu0.itb.inst_hits                           0                       # ITB inst hits
system.cpu0.itb.inst_misses                         0                       # ITB inst misses
system.cpu0.itb.read_hits                           0                       # DTB read hits
system.cpu0.itb.read_misses                         0                       # DTB read misses
system.cpu0.itb.write_hits                          0                       # DTB write hits
system.cpu0.itb.write_misses                        0                       # DTB write misses
system.cpu0.itb.flush_tlb                           0                       # Number of times complete TLB was flushed
system.cpu0.itb.flush_tlb_mva                       0                       # Number of times TLB was flushed by MVA
system.cpu0.itb.flush_tlb_mva_asid                  0                       # Number of times TLB was flushed by MVA & ASID
system.cpu0.itb.flush_tlb_asid                      0                       # Number of times TLB was flushed by ASID
system.cpu0.itb.flush_entries                       0                       # Number of entries that have been flushed from TLB
system.cpu0.itb.align_faults                        0                       # Number of TLB faults due to alignment restrictions
system.cpu0.itb.prefetch_faults                     0                       # Number of TLB faults due to prefetch
system.cpu0.itb.domain_faults                       0                       # Number of TLB faults due to domain restrictions
system.cpu0.itb.perms_faults                        0                       # Number of TLB faults due to permissions restrictions
system.cpu0.itb.read_accesses                       0                       # DTB read accesses
system.cpu0.itb.write_accesses                      0                       # DTB write accesses
system.cpu0.itb.inst_accesses                       0                       # ITB inst accesses
system.cpu0.itb.hits                                0                       # DTB hits
system.cpu0.itb.misses                              0                       # DTB misses
system.cpu0.itb.accesses                            0                       # DTB accesses
system.cpu0.workload.num_syscalls                  43                       # Number of system calls
system.cpu0.numCycles                        48039469                       # number of cpu cycles simulated
system.cpu0.numWorkItemsStarted                     0                       # number of work items this cpu started
system.cpu0.numWorkItemsCompleted                   0                       # number of work items this cpu completed
system.cpu0.committedInsts                   40300483                       # Number of instructions committed
system.cpu0.committedOps                     48039426                       # Number of ops (including micro ops) committed
system.cpu0.num_int_alu_accesses             43255933                       # Number of integer alu accesses
system.cpu0.num_fp_alu_accesses                   103                       # Number of float alu accesses
system.cpu0.num_func_calls                    4202718                       # number of times a function call or return occured
system.cpu0.num_conditional_control_insts      7708897                       # number of instructions that are conditional controls
system.cpu0.num_int_insts                    43255933                       # number of integer instructions
system.cpu0.num_fp_insts                          103                       # number of float instructions
system.cpu0.num_int_register_reads          204184505                       # number of times the integer registers were read
system.cpu0.num_int_register_writes          51687324                       # number of times the integer registers were written
system.cpu0.num_fp_register_reads                 163                       # number of times the floating registers were read
system.cpu0.num_fp_register_writes                 63                       # number of times the floating registers were written
system.cpu0.num_mem_refs                      7521719                       # number of memory refs
system.cpu0.num_load_insts                    4663179                       # Number of load instructions
system.cpu0.num_store_insts                   2858540                       # Number of store instructions
system.cpu0.num_idle_cycles                         0                       # Number of idle cycles
system.cpu0.num_busy_cycles                  48039469                       # Number of busy cycles
system.cpu0.not_idle_fraction                       1                       # Percentage of non-idle cycles
system.cpu0.idle_fraction                           0                       # Percentage of idle cycles
system.cpu1.dtb.inst_hits                           0                       # ITB inst hits
system.cpu1.dtb.inst_misses                         0                       # ITB inst misses
system.cpu1.dtb.read_hits                           0                       # DTB read hits
system.cpu1.dtb.read_misses                         0                       # DTB read misses
system.cpu1.dtb.write_hits                          0                       # DTB write hits
system.cpu1.dtb.write_misses                        0                       # DTB write misses
system.cpu1.dtb.flush_tlb                           0                       # Number of times complete TLB was flushed
system.cpu1.dtb.flush_tlb_mva                       0                       # Number of times TLB was flushed by MVA
system.cpu1.dtb.flush_tlb_mva_asid                  0                       # Number of times TLB was flushed by MVA & ASID
system.cpu1.dtb.flush_tlb_asid                      0                       # Number of times TLB was flushed by ASID
system.cpu1.dtb.flush_entries                       0                       # Number of entries that have been flushed from TLB
system.cpu1.dtb.align_faults                        0                       # Number of TLB faults due to alignment restrictions
system.cpu1.dtb.prefetch_faults                     0                       # Number of TLB faults due to prefetch
system.cpu1.dtb.domain_faults                       0                       # Number of TLB faults due to domain restrictions
system.cpu1.dtb.perms_faults                        0                       # Number of TLB faults due to permissions restrictions
system.cpu1.dtb.read_accesses                       0                       # DTB read accesses
system.cpu1.dtb.write_accesses                      0                       # DTB write accesses
system.cpu1.dtb.inst_accesses                       0                       # ITB inst accesses
system.cpu1.dtb.hits                                0                       # DTB hits
system.cpu1.dtb.misses                              0                       # DTB misses
system.cpu1.dtb.accesses                            0                       # DTB accesses
system.cpu1.itb.inst_hits                           0                       # ITB inst hits
system.cpu1.itb.inst_misses                         0                       # ITB inst misses
system.cpu1.itb.read_hits                           0                       # DTB read hits
system.cpu1.itb.read_misses                         0                       # DTB read misses
system.cpu1.itb.write_hits                          0                       # DTB write hits
system.cpu1.itb.write_misses                        0                       # DTB write misses
system.cpu1.itb.flush_tlb                           0                       # Number of times complete TLB was flushed
system.cpu1.itb.flush_tlb_mva                       0                       # Number of times TLB was flushed by MVA
system.cpu1.itb.flush_tlb_mva_asid                  0                       # Number of times TLB was flushed by MVA & ASID
system.cpu1.itb.flush_tlb_asid                      0                       # Number of times TLB was flushed by ASID
system.cpu1.itb.flush_entries                       0                       # Number of entries that have been flushed from TLB
system.cpu1.itb.align_faults                        0                       # Number of TLB faults due to alignment restrictions
system.cpu1.itb.prefetch_faults                     0                       # Number of TLB faults due to prefetch
system.cpu1.itb.domain_faults                       0                       # Number of TLB faults due to domain restrictions
system.cpu1.itb.perms_faults                        0                       # Number of TLB faults due to permissions restrictions
system.cpu1.itb.read_accesses                       0                       # DTB read accesses
system.cpu1.itb.write_accesses                      0                       # DTB write accesses
system.cpu1.itb.inst_accesses                       0                       # ITB inst accesses
system.cpu1.itb.hits                                0                       # DTB hits
system.cpu1.itb.misses                              0                       # DTB misses
system.cpu1.itb.accesses                            0                       # DTB accesses
system.cpu1.numCycles                               0                       # number of cpu cycles simulated
system.cpu1.numWorkItemsStarted                     0                       # number of work items this cpu started
system.cpu1.numWorkItemsCompleted                   0                       # number of work items this cpu completed
system.cpu1.committedInsts                          0                       # Number of instructions committed
system.cpu1.committedOps                            0                       # Number of ops (including micro ops) committed
system.cpu1.num_int_alu_accesses                    0                       # Number of integer alu accesses
system.cpu1.num_fp_alu_accesses                     0                       # Number of float alu accesses
system.cpu1.num_func_calls                          0                       # number of times a function call or return occured
system.cpu1.num_conditional_control_insts            0                       # number of instructions that are conditional controls
system.cpu1.num_int_insts                           0                       # number of integer instructions
system.cpu1.num_fp_insts                            0                       # number of float instructions
system.cpu1.num_int_register_reads                  0                       # number of times the integer registers were read
system.cpu1.num_int_register_writes                 0                       # number of times the integer registers were written
system.cpu1.num_fp_register_reads                   0                       # number of times the floating registers were read
system.cpu1.num_fp_register_writes                  0                       # number of times the floating registers were written
system.cpu1.num_mem_refs                            0                       # number of memory refs
system.cpu1.num_load_insts                          0                       # Number of load instructions
system.cpu1.num_store_insts                         0                       # Number of store instructions
system.cpu1.num_idle_cycles                         0                       # Number of idle cycles
system.cpu1.num_busy_cycles                         0                       # Number of busy cycles
system.cpu1.not_idle_fraction                       0                       # Percentage of non-idle cycles
system.cpu1.idle_fraction                           1                       # Percentage of idle cycles

---------- End Simulation Statistics   ----------
