/home/local/ASUAD/quoclon1/publish_ccf_github/benchmarks/pow_func
6
Simulation for CGRA for 4 x 4 with 4 registers per PE
CPU frequency @ 2GHz
CGRA frequency @ 0.7GHz
CGRA4x4R4torus
Global frequency set at 1000000000000 ticks per second
warn: DRAM device capacity (8192 Mbytes) does not match the address range assigned (512 Mbytes)
0: system.remote_gdb: listening for remote gdb on port 7000
gem5 Simulator System.  http://gem5.org
gem5 is copyrighted software; use the --copyright option for details.

gem5 version 20.1.0.4
gem5 compiled Sep 24 2021 12:05:29
gem5 started Sep 24 2021 13:34:25
gem5 executing on en4181851l, pid 3293208
command line: /home/local/ASUAD/quoclon1/publish_ccf_github/gem5/build/ARM/gem5.opt --debug-flags=CGRA_Detailed,CGRA_Execute /home/local/ASUAD/quoclon1/publish_ccf_github/gem5/configs/example/se.py -n 1 --cpu-type CGRA4x4R4torus -c ./pow -o 6

**** REAL SIMULATION ****
warn: membus.slave is deprecated. `slave` is now called `cpu_side_ports`
warn: membus.slave is deprecated. `slave` is now called `cpu_side_ports`
warn: membus.slave is deprecated. `slave` is now called `cpu_side_ports`
warn: membus.slave is deprecated. `slave` is now called `cpu_side_ports`
warn: membus.slave is deprecated. `slave` is now called `cpu_side_ports`
warn: membus.master is deprecated. `master` is now called `mem_side_ports`
warn: No dot file generated. Please install pydot to generate the dot file and pdf.
info: Entering event queue @ 0.  Starting simulation...
info: Increasing stack size by one page.
warn: ignoring syscall mprotect(...)
createCGRA
checkTotalLoops
from cgra.c Initialize Parameters

**********EPISIZE 32*********

**********PROSIZE 544*********

**********KERNSIZE 32*********

******SIZE OF UNSIGNED LONG4*****

******SIZE OF UNSIGNED LONG LONG8*****

************XDIM and YDim are 4, 4
Loop Count: -3
From FILE: PROLOGPC= a4790, EPILOGPC=a4688,  KernelPC=a5898
from cgra.c Initialize Parameters

**********EPISIZE 32*********

**********PROSIZE 288*********

**********KERNSIZE 32*********

******SIZE OF UNSIGNED LONG4*****

******SIZE OF UNSIGNED LONG LONG8*****

************XDIM and YDim are 4, 4
Loop Count: -3
From FILE: PROLOGPC= a5be8, EPILOGPC=a5ae0,  KernelPC=a64f0
Main thread calling CGRA thread...
Base = 2 - Pow = 6


accelerateOnCGRA
configureCGRA

loopno = 2
newTC = -3 + 10
Core will execute loop 2 on CGRA


runOnCGRA
60477000: system.cpu: CGRA PARAMETERS: PROLOG= 18, EPILOG=2, II=2, KernelCounter=7 TCdynamic=0
60477000: system.cpu: CGRA PARAMETERS: PROLOGPC= a5be8, EPILOGPC=a5ae0,  KernelPC=a64f0
60477500: system.cpu: Inside CGRA Execution else statement.
60477500: system.cpu: Inside CGRA_Execution block.
60477500: system.cpu: 
CALL IN NOW CGRA_Execution.
60477500: system.cpu: 

 ~~~~~~ CGRA_Execution @ numCycles = 1 ~~~~~~~
60477500: global: 
******** DB INPUT2 ReadAddress = 0************
60477500: global: 
******** DB INPUT2 ReadAddress = 0************
60477500: global: 
******** DB INPUT2 ReadAddress = 0************
60477500: global: 
******** DB INPUT2 ReadAddress = 0************
60477500: global: 
******** DB INPUT2 ReadAddress = 0************
60477500: global: 
******** DB INPUT2 ReadAddress = 0************
60477500: global: 
******** DB INPUT2 ReadAddress = 0************
60477500: global: 
******** DB INPUT2 ReadAddress = 0************
60477500: global: 
******** DB INPUT2 ReadAddress = 0************
60477500: global: 
******** DB INPUT2 ReadAddress = 0************
60477500: global: 
******** DB INPUT2 ReadAddress = 0************
60477500: global: 
******** DB INPUT2 ReadAddress = 0************
60477500: global: 
******** DB INPUT2 ReadAddress = 0************
60477500: global: 
******** DB INPUT2 ReadAddress = 0************
60477500: global: 
******** DB INPUT2 ReadAddress = 0************
60477500: global: 
******** DB INPUT2 ReadAddress = 0************
60477500: system.cpu: Ins: 4529864704, 10e004000 @ PE 0
60477500: global: Predictor bit: 1	 Opcode: 0
60477500: global: 
Input1 = 0	Input2 = 0
60477500: global: 
******** Setting Configuration as 0************
60477500: global: 
************** WE *****************
60477500: global: Distance is: 0
60477500: system.cpu: Cond Reg = 1
60477500: global: CGRAPE.cpp::getController_Reg: Controller_Reg = 1
60477500: system.cpu: Conditional reg is 1 : Len = 17
60477500: system.cpu: Ins: 4529864704, 10e004000 @ PE 1
60477500: global: Predictor bit: 1	 Opcode: 0
60477500: global: 
Input1 = 0	Input2 = 0
60477500: global: 
******** Setting Configuration as 0************
60477500: global: 
************** WE *****************
60477500: global: Distance is: 0
60477500: system.cpu: Cond Reg = 1
60477500: global: CGRAPE.cpp::getController_Reg: Controller_Reg = 1
60477500: system.cpu: Conditional reg is 1 : Len = 17
60477500: system.cpu: Ins: 4529864704, 10e004000 @ PE 2
60477500: global: Predictor bit: 1	 Opcode: 0
60477500: global: 
Input1 = 0	Input2 = 0
60477500: global: 
******** Setting Configuration as 0************
60477500: global: 
************** WE *****************
60477500: global: Distance is: 0
60477500: system.cpu: Cond Reg = 1
60477500: global: CGRAPE.cpp::getController_Reg: Controller_Reg = 1
60477500: system.cpu: Conditional reg is 1 : Len = 17
60477500: system.cpu: Ins: 4529864704, 10e004000 @ PE 3
60477500: global: Predictor bit: 1	 Opcode: 0
60477500: global: 
Input1 = 0	Input2 = 0
60477500: global: 
******** Setting Configuration as 0************
60477500: global: 
************** WE *****************
60477500: global: Distance is: 0
60477500: system.cpu: Cond Reg = 1
60477500: global: CGRAPE.cpp::getController_Reg: Controller_Reg = 1
60477500: system.cpu: Conditional reg is 1 : Len = 17
60477500: system.cpu: Ins: 4529864704, 10e004000 @ PE 4
60477500: global: Predictor bit: 1	 Opcode: 0
60477500: global: 
Input1 = 0	Input2 = 0
60477500: global: 
******** Setting Configuration as 0************
60477500: global: 
************** WE *****************
60477500: global: Distance is: 0
60477500: system.cpu: Cond Reg = 1
60477500: global: CGRAPE.cpp::getController_Reg: Controller_Reg = 1
60477500: system.cpu: Conditional reg is 1 : Len = 17
60477500: system.cpu: Ins: 4529864704, 10e004000 @ PE 5
60477500: global: Predictor bit: 1	 Opcode: 0
60477500: global: 
Input1 = 0	Input2 = 0
60477500: global: 
******** Setting Configuration as 0************
60477500: global: 
************** WE *****************
60477500: global: Distance is: 0
60477500: system.cpu: Cond Reg = 1
60477500: global: CGRAPE.cpp::getController_Reg: Controller_Reg = 1
60477500: system.cpu: Conditional reg is 1 : Len = 17
60477500: system.cpu: Ins: 4529864704, 10e004000 @ PE 6
60477500: global: Predictor bit: 1	 Opcode: 0
60477500: global: 
Input1 = 0	Input2 = 0
60477500: global: 
******** Setting Configuration as 0************
60477500: global: 
************** WE *****************
60477500: global: Distance is: 0
60477500: system.cpu: Cond Reg = 1
60477500: global: CGRAPE.cpp::getController_Reg: Controller_Reg = 1
60477500: system.cpu: Conditional reg is 1 : Len = 17
60477500: system.cpu: Ins: 4529864704, 10e004000 @ PE 7
60477500: global: Predictor bit: 1	 Opcode: 0
60477500: global: 
Input1 = 0	Input2 = 0
60477500: global: 
******** Setting Configuration as 0************
60477500: global: 
************** WE *****************
60477500: global: Distance is: 0
60477500: system.cpu: Cond Reg = 1
60477500: global: CGRAPE.cpp::getController_Reg: Controller_Reg = 1
60477500: system.cpu: Conditional reg is 1 : Len = 17
60477500: system.cpu: Ins: 4529864704, 10e004000 @ PE 8
60477500: global: Predictor bit: 1	 Opcode: 0
60477500: global: 
Input1 = 0	Input2 = 0
60477500: global: 
******** Setting Configuration as 0************
60477500: global: 
************** WE *****************
60477500: global: Distance is: 0
60477500: system.cpu: Cond Reg = 1
60477500: global: CGRAPE.cpp::getController_Reg: Controller_Reg = 1
60477500: system.cpu: Conditional reg is 1 : Len = 17
60477500: system.cpu: Ins: 4529864704, 10e004000 @ PE 9
60477500: global: Predictor bit: 1	 Opcode: 0
60477500: global: 
Input1 = 0	Input2 = 0
60477500: global: 
******** Setting Configuration as 0************
60477500: global: 
************** WE *****************
60477500: global: Distance is: 0
60477500: system.cpu: Cond Reg = 1
60477500: global: CGRAPE.cpp::getController_Reg: Controller_Reg = 1
60477500: system.cpu: Conditional reg is 1 : Len = 17
60477500: system.cpu: Ins: 4529864704, 10e004000 @ PE 10
60477500: global: Predictor bit: 1	 Opcode: 0
60477500: global: 
Input1 = 0	Input2 = 0
60477500: global: 
******** Setting Configuration as 0************
60477500: global: 
************** WE *****************
60477500: global: Distance is: 0
60477500: system.cpu: Cond Reg = 1
60477500: global: CGRAPE.cpp::getController_Reg: Controller_Reg = 1
60477500: system.cpu: Conditional reg is 1 : Len = 17
60477500: system.cpu: Ins: 4529864704, 10e004000 @ PE 11
60477500: global: Predictor bit: 1	 Opcode: 0
60477500: global: 
Input1 = 0	Input2 = 0
60477500: global: 
******** Setting Configuration as 0************
60477500: global: 
************** WE *****************
60477500: global: Distance is: 0
60477500: system.cpu: Cond Reg = 1
60477500: global: CGRAPE.cpp::getController_Reg: Controller_Reg = 1
60477500: system.cpu: Conditional reg is 1 : Len = 17
60477500: system.cpu: Ins: 4529864704, 10e004000 @ PE 12
60477500: global: Predictor bit: 1	 Opcode: 0
60477500: global: 
Input1 = 0	Input2 = 0
60477500: global: 
******** Setting Configuration as 0************
60477500: global: 
************** WE *****************
60477500: global: Distance is: 0
60477500: system.cpu: Cond Reg = 1
60477500: global: CGRAPE.cpp::getController_Reg: Controller_Reg = 1
60477500: system.cpu: Conditional reg is 1 : Len = 17
60477500: system.cpu: Ins: 4529864704, 10e004000 @ PE 13
60477500: global: Predictor bit: 1	 Opcode: 0
60477500: global: 
Input1 = 0	Input2 = 0
60477500: global: 
******** Setting Configuration as 0************
60477500: global: 
************** WE *****************
60477500: global: Distance is: 0
60477500: system.cpu: Cond Reg = 1
60477500: global: CGRAPE.cpp::getController_Reg: Controller_Reg = 1
60477500: system.cpu: Conditional reg is 1 : Len = 17
60477500: system.cpu: Ins: 4529864704, 10e004000 @ PE 14
60477500: global: Predictor bit: 1	 Opcode: 0
60477500: global: 
Input1 = 0	Input2 = 0
60477500: global: 
******** Setting Configuration as 0************
60477500: global: 
************** WE *****************
60477500: global: Distance is: 0
60477500: system.cpu: Cond Reg = 1
60477500: global: CGRAPE.cpp::getController_Reg: Controller_Reg = 1
60477500: system.cpu: Conditional reg is 1 : Len = 17
60477500: system.cpu: Ins: 4529864704, 10e004000 @ PE 15
60477500: global: Predictor bit: 1	 Opcode: 0
60477500: global: 
Input1 = 0	Input2 = 0
60477500: global: 
******** Setting Configuration as 0************
60477500: global: 
************** WE *****************
60477500: global: Distance is: 0
60477500: system.cpu: Cond Reg = 1
60477500: global: CGRAPE.cpp::getController_Reg: Controller_Reg = 1
60477500: system.cpu: Conditional reg is 1 : Len = 17
60477500: system.cpu: Conditional reg is 1 : Len = 17
60477500: system.cpu: CGRA advanceTime complete.
60477500: system.cpu: *******IN ADVANCE PC******
60477500: system.cpu: build/ARM/cpu/atomiccgra/atomiccgra.cc,CGRA_advancePC,1761,PC:a5be8
60477500: system.cpu: Passed Complete Drain().
60477500: system.cpu: Make latency status=1.
60477500: system.cpu: Inside status idle.
60477500: system.cpu: Exiting schedule events
60477500: system.cpu: We are here after Execution
60478000: system.cpu: Inside CGRA Execution else statement.
60478000: system.cpu: Inside CGRA_Execution block.
60478000: system.cpu: 
CALL IN NOW CGRA_Execution.
60478000: system.cpu: 

 ~~~~~~ CGRA_Execution @ numCycles = 2 ~~~~~~~
60478000: global: 
******** DB INPUT2 ReadAddress = 0************
60478000: global: 
******** DB INPUT2 ReadAddress = 0************
60478000: global: 
******** DB INPUT2 ReadAddress = 0************
60478000: global: 
******** DB INPUT2 ReadAddress = 0************
60478000: system.cpu: Ins: 4798300161, 11e004001 @ PE 0
60478000: global: Predictor bit: 1	 Opcode: 1
60478000: global: 
Input1 = 1	Input2 = 0
60478000: global: 
******** LDI IN THIS PE 1************
60478000: global: 
************** WE *****************
60478000: global: 
WRITE: REG NUMBER: 0 dist: 0
60478000: global: R0: 1	R1: 0	R2: 0	R3: 0
60478000: global: 
WRITE: FPREG NUMBER: 0 dist: 0
60478000: global: FPR0: 1	FPR1: 0	FPR2: 0	FPR3: 0
60478000: global: Writing output 1 to register 0
60478000: global: Distance is: 0
60478000: system.cpu: Cond Reg = 1
60478000: global: CGRAPE.cpp::getController_Reg: Controller_Reg = 1
60478000: system.cpu: Conditional reg is 1 : Len = 16
60478000: system.cpu: Ins: 6306136064, 177e00000 @ PE 1
60478000: global: Predictor bit: 0	 Opcode: 7
60478000: global: CGRA: NOOP.Execute()
60478000: global: Distance is: 0
60478000: system.cpu: Cond Reg = 1
60478000: system.cpu: Conditional reg is 1 : Len = 16
60478000: system.cpu: Ins: 6306136064, 177e00000 @ PE 2
60478000: global: Predictor bit: 0	 Opcode: 7
60478000: global: CGRA: NOOP.Execute()
60478000: global: Distance is: 0
60478000: system.cpu: Cond Reg = 1
60478000: system.cpu: Conditional reg is 1 : Len = 16
60478000: system.cpu: Ins: 6306136064, 177e00000 @ PE 3
60478000: global: Predictor bit: 0	 Opcode: 7
60478000: global: CGRA: NOOP.Execute()
60478000: global: Distance is: 0
60478000: system.cpu: Cond Reg = 1
60478000: system.cpu: Conditional reg is 1 : Len = 16
60478000: system.cpu: Ins: 6306136064, 177e00000 @ PE 4
60478000: global: Predictor bit: 0	 Opcode: 7
60478000: global: CGRA: NOOP.Execute()
60478000: global: Distance is: 0
60478000: system.cpu: Cond Reg = 1
60478000: system.cpu: Conditional reg is 1 : Len = 16
60478000: system.cpu: Ins: 6306136064, 177e00000 @ PE 5
60478000: global: Predictor bit: 0	 Opcode: 7
60478000: global: CGRA: NOOP.Execute()
60478000: global: Distance is: 0
60478000: system.cpu: Cond Reg = 1
60478000: system.cpu: Conditional reg is 1 : Len = 16
60478000: system.cpu: Ins: 6306136064, 177e00000 @ PE 6
60478000: global: Predictor bit: 0	 Opcode: 7
60478000: global: CGRA: NOOP.Execute()
60478000: global: Distance is: 0
60478000: system.cpu: Cond Reg = 1
60478000: system.cpu: Conditional reg is 1 : Len = 16
60478000: system.cpu: Ins: 6306136064, 177e00000 @ PE 7
60478000: global: Predictor bit: 0	 Opcode: 7
60478000: global: CGRA: NOOP.Execute()
60478000: global: Distance is: 0
60478000: system.cpu: Cond Reg = 1
60478000: system.cpu: Conditional reg is 1 : Len = 16
60478000: system.cpu: Ins: 6306136064, 177e00000 @ PE 8
60478000: global: Predictor bit: 0	 Opcode: 7
60478000: global: CGRA: NOOP.Execute()
60478000: global: Distance is: 0
60478000: system.cpu: Cond Reg = 1
60478000: system.cpu: Conditional reg is 1 : Len = 16
60478000: system.cpu: Ins: 4798367316, 11e014654 @ PE 9
60478000: global: Predictor bit: 1	 Opcode: 1
60478000: global: 
Input1 = 1620	Input2 = 0
60478000: global: 
******** LDI IN THIS PE 1620************
60478000: global: 
************** WE *****************
60478000: global: 
WRITE: REG NUMBER: 2 dist: 0
60478000: global: R0: 0	R1: 0	R2: 1620	R3: 0
60478000: global: 
WRITE: FPREG NUMBER: 2 dist: 0
60478000: global: FPR0: 0	FPR1: 0	FPR2: 1620	FPR3: 0
60478000: global: Writing output 1620 to register 2
60478000: global: Distance is: 0
60478000: system.cpu: Cond Reg = 1
60478000: global: CGRAPE.cpp::getController_Reg: Controller_Reg = 1
60478000: system.cpu: Conditional reg is 1 : Len = 16
60478000: system.cpu: Ins: 4798301780, 11e004654 @ PE 10
60478000: global: Predictor bit: 1	 Opcode: 1
60478000: global: 
Input1 = 1620	Input2 = 0
60478000: global: 
******** LDI IN THIS PE 1620************
60478000: global: 
************** WE *****************
60478000: global: 
WRITE: REG NUMBER: 0 dist: 0
60478000: global: R0: 1620	R1: 0	R2: 0	R3: 0
60478000: global: 
WRITE: FPREG NUMBER: 0 dist: 0
60478000: global: FPR0: 1620	FPR1: 0	FPR2: 0	FPR3: 0
60478000: global: Writing output 1620 to register 0
60478000: global: Distance is: 0
60478000: system.cpu: Cond Reg = 1
60478000: global: CGRAPE.cpp::getController_Reg: Controller_Reg = 1
60478000: system.cpu: Conditional reg is 1 : Len = 16
60478000: system.cpu: Ins: 6306136064, 177e00000 @ PE 11
60478000: global: Predictor bit: 0	 Opcode: 7
60478000: global: CGRA: NOOP.Execute()
60478000: global: Distance is: 0
60478000: system.cpu: Cond Reg = 1
60478000: system.cpu: Conditional reg is 1 : Len = 16
60478000: system.cpu: Ins: 6306136064, 177e00000 @ PE 12
60478000: global: Predictor bit: 0	 Opcode: 7
60478000: global: CGRA: NOOP.Execute()
60478000: global: Distance is: 0
60478000: system.cpu: Cond Reg = 1
60478000: system.cpu: Conditional reg is 1 : Len = 16
60478000: system.cpu: Ins: 4798301768, 11e004648 @ PE 13
60478000: global: Predictor bit: 1	 Opcode: 1
60478000: global: 
Input1 = 1608	Input2 = 0
60478000: global: 
******** LDI IN THIS PE 1608************
60478000: global: 
************** WE *****************
60478000: global: 
WRITE: REG NUMBER: 0 dist: 0
60478000: global: R0: 1608	R1: 0	R2: 0	R3: 0
60478000: global: 
WRITE: FPREG NUMBER: 0 dist: 0
60478000: global: FPR0: 1608	FPR1: 0	FPR2: 0	FPR3: 0
60478000: global: Writing output 1608 to register 0
60478000: global: Distance is: 0
60478000: system.cpu: Cond Reg = 1
60478000: global: CGRAPE.cpp::getController_Reg: Controller_Reg = 1
60478000: system.cpu: Conditional reg is 1 : Len = 16
60478000: system.cpu: Ins: 6306136064, 177e00000 @ PE 14
60478000: global: Predictor bit: 0	 Opcode: 7
60478000: global: CGRA: NOOP.Execute()
60478000: global: Distance is: 0
60478000: system.cpu: Cond Reg = 1
60478000: system.cpu: Conditional reg is 1 : Len = 16
60478000: system.cpu: Ins: 6306136064, 177e00000 @ PE 15
60478000: global: Predictor bit: 0	 Opcode: 7
60478000: global: CGRA: NOOP.Execute()
60478000: global: Distance is: 0
60478000: system.cpu: Cond Reg = 1
60478000: system.cpu: Conditional reg is 1 : Len = 16
60478000: system.cpu: Conditional reg is 1 : Len = 16
60478000: system.cpu: CGRA advanceTime complete.
60478000: system.cpu: *******IN ADVANCE PC******
60478000: system.cpu: build/ARM/cpu/atomiccgra/atomiccgra.cc,CGRA_advancePC,1761,PC:a5c68
60478000: system.cpu: Passed Complete Drain().
60478000: system.cpu: Make latency status=1.
60478000: system.cpu: Inside status idle.
60478000: system.cpu: Exiting schedule events
60478000: system.cpu: We are here after Execution
60478500: system.cpu: Inside CGRA Execution else statement.
60478500: system.cpu: Inside CGRA_Execution block.
60478500: system.cpu: 
CALL IN NOW CGRA_Execution.
60478500: system.cpu: 

 ~~~~~~ CGRA_Execution @ numCycles = 3 ~~~~~~~
60478500: global: 
******** DB INPUT2 ReadAddress = 0************
60478500: global: 
******** DB INPUT2 ReadAddress = 0************
60478500: global: 
******** DB INPUT2 ReadAddress = 0************
60478500: global: 
******** DB INPUT2 ReadAddress = 0************
60478500: system.cpu: Ins: 5066735616, 12e004000 @ PE 0
60478500: global: Predictor bit: 1	 Opcode: 2
60478500: global: 
Input1 = 0	Input2 = 1
60478500: global: 
******** LDMI IN THIS PE 0************
60478500: global: 
************** WE *****************
60478500: global: 
WRITE: REG NUMBER: 0 dist: 0
60478500: global: R0: 1	R1: 0	R2: 0	R3: 0
60478500: global: 
WRITE: FPREG NUMBER: 0 dist: 0
60478500: global: FPR0: 1	FPR1: 0	FPR2: 0	FPR3: 0
60478500: global: Writing output 1 to register 0
60478500: global: Distance is: 0
60478500: system.cpu: Cond Reg = 1
60478500: global: CGRAPE.cpp::getController_Reg: Controller_Reg = 1
60478500: system.cpu: Conditional reg is 1 : Len = 15
60478500: system.cpu: Ins: 6306136064, 177e00000 @ PE 1
60478500: global: Predictor bit: 0	 Opcode: 7
60478500: global: CGRA: NOOP.Execute()
60478500: global: Distance is: 0
60478500: system.cpu: Cond Reg = 1
60478500: system.cpu: Conditional reg is 1 : Len = 15
60478500: system.cpu: Ins: 6306136064, 177e00000 @ PE 2
60478500: global: Predictor bit: 0	 Opcode: 7
60478500: global: CGRA: NOOP.Execute()
60478500: global: Distance is: 0
60478500: system.cpu: Cond Reg = 1
60478500: system.cpu: Conditional reg is 1 : Len = 15
60478500: system.cpu: Ins: 6306136064, 177e00000 @ PE 3
60478500: global: Predictor bit: 0	 Opcode: 7
60478500: global: CGRA: NOOP.Execute()
60478500: global: Distance is: 0
60478500: system.cpu: Cond Reg = 1
60478500: system.cpu: Conditional reg is 1 : Len = 15
60478500: system.cpu: Ins: 6306136064, 177e00000 @ PE 4
60478500: global: Predictor bit: 0	 Opcode: 7
60478500: global: CGRA: NOOP.Execute()
60478500: global: Distance is: 0
60478500: system.cpu: Cond Reg = 1
60478500: system.cpu: Conditional reg is 1 : Len = 15
60478500: system.cpu: Ins: 6306136064, 177e00000 @ PE 5
60478500: global: Predictor bit: 0	 Opcode: 7
60478500: global: CGRA: NOOP.Execute()
60478500: global: Distance is: 0
60478500: system.cpu: Cond Reg = 1
60478500: system.cpu: Conditional reg is 1 : Len = 15
60478500: system.cpu: Ins: 6306136064, 177e00000 @ PE 6
60478500: global: Predictor bit: 0	 Opcode: 7
60478500: global: CGRA: NOOP.Execute()
60478500: global: Distance is: 0
60478500: system.cpu: Cond Reg = 1
60478500: system.cpu: Conditional reg is 1 : Len = 15
60478500: system.cpu: Ins: 6306136064, 177e00000 @ PE 7
60478500: global: Predictor bit: 0	 Opcode: 7
60478500: global: CGRA: NOOP.Execute()
60478500: global: Distance is: 0
60478500: system.cpu: Cond Reg = 1
60478500: system.cpu: Conditional reg is 1 : Len = 15
60478500: system.cpu: Ins: 6306136064, 177e00000 @ PE 8
60478500: global: Predictor bit: 0	 Opcode: 7
60478500: global: CGRA: NOOP.Execute()
60478500: global: Distance is: 0
60478500: system.cpu: Cond Reg = 1
60478500: system.cpu: Conditional reg is 1 : Len = 15
60478500: system.cpu: Ins: 5066801306, 12e01409a @ PE 9
60478500: global: Predictor bit: 1	 Opcode: 2
60478500: global: 
Input1 = 154	Input2 = 0
60478500: global: 
******** LDMI IN THIS PE 154************
60478500: global: 
************** WE *****************
60478500: global: 
WRITE: REG NUMBER: 2 dist: 0
60478500: global: R0: 0	R1: 0	R2: 632404	R3: 0
60478500: global: 
WRITE: FPREG NUMBER: 2 dist: 0
60478500: global: FPR0: 0	FPR1: 0	FPR2: 632404	FPR3: 0
60478500: global: Writing output 632404 to register 2
60478500: global: Distance is: 0
60478500: system.cpu: Cond Reg = 1
60478500: global: CGRAPE.cpp::getController_Reg: Controller_Reg = 1
60478500: system.cpu: Conditional reg is 1 : Len = 15
60478500: system.cpu: Ins: 5066735770, 12e00409a @ PE 10
60478500: global: Predictor bit: 1	 Opcode: 2
60478500: global: 
Input1 = 154	Input2 = 1620
60478500: global: 
******** LDMI IN THIS PE 154************
60478500: global: 
************** WE *****************
60478500: global: 
WRITE: REG NUMBER: 0 dist: 0
60478500: global: R0: 632404	R1: 0	R2: 0	R3: 0
60478500: global: 
WRITE: FPREG NUMBER: 0 dist: 0
60478500: global: FPR0: 632404	FPR1: 0	FPR2: 0	FPR3: 0
60478500: global: Writing output 632404 to register 0
60478500: global: Distance is: 0
60478500: system.cpu: Cond Reg = 1
60478500: global: CGRAPE.cpp::getController_Reg: Controller_Reg = 1
60478500: system.cpu: Conditional reg is 1 : Len = 15
60478500: system.cpu: Ins: 6306136064, 177e00000 @ PE 11
60478500: global: Predictor bit: 0	 Opcode: 7
60478500: global: CGRA: NOOP.Execute()
60478500: global: Distance is: 0
60478500: system.cpu: Cond Reg = 1
60478500: system.cpu: Conditional reg is 1 : Len = 15
60478500: system.cpu: Ins: 6306136064, 177e00000 @ PE 12
60478500: global: Predictor bit: 0	 Opcode: 7
60478500: global: CGRA: NOOP.Execute()
60478500: global: Distance is: 0
60478500: system.cpu: Cond Reg = 1
60478500: system.cpu: Conditional reg is 1 : Len = 15
60478500: system.cpu: Ins: 5066735770, 12e00409a @ PE 13
60478500: global: Predictor bit: 1	 Opcode: 2
60478500: global: 
Input1 = 154	Input2 = 1608
60478500: global: 
******** LDMI IN THIS PE 154************
60478500: global: 
************** WE *****************
60478500: global: 
WRITE: REG NUMBER: 0 dist: 0
60478500: global: R0: 632392	R1: 0	R2: 0	R3: 0
60478500: global: 
WRITE: FPREG NUMBER: 0 dist: 0
60478500: global: FPR0: 632392	FPR1: 0	FPR2: 0	FPR3: 0
60478500: global: Writing output 632392 to register 0
60478500: global: Distance is: 0
60478500: system.cpu: Cond Reg = 1
60478500: global: CGRAPE.cpp::getController_Reg: Controller_Reg = 1
60478500: system.cpu: Conditional reg is 1 : Len = 15
60478500: system.cpu: Ins: 6306136064, 177e00000 @ PE 14
60478500: global: Predictor bit: 0	 Opcode: 7
60478500: global: CGRA: NOOP.Execute()
60478500: global: Distance is: 0
60478500: system.cpu: Cond Reg = 1
60478500: system.cpu: Conditional reg is 1 : Len = 15
60478500: system.cpu: Ins: 6306136064, 177e00000 @ PE 15
60478500: global: Predictor bit: 0	 Opcode: 7
60478500: global: CGRA: NOOP.Execute()
60478500: global: Distance is: 0
60478500: system.cpu: Cond Reg = 1
60478500: system.cpu: Conditional reg is 1 : Len = 15
60478500: system.cpu: Conditional reg is 1 : Len = 15
60478500: system.cpu: CGRA advanceTime complete.
60478500: system.cpu: *******IN ADVANCE PC******
60478500: system.cpu: build/ARM/cpu/atomiccgra/atomiccgra.cc,CGRA_advancePC,1761,PC:a5ce8
60478500: system.cpu: Passed Complete Drain().
60478500: system.cpu: Make latency status=1.
60478500: system.cpu: Inside status idle.
60478500: system.cpu: Exiting schedule events
60478500: system.cpu: We are here after Execution
60479000: system.cpu: Inside CGRA Execution else statement.
60479000: system.cpu: Inside CGRA_Execution block.
60479000: system.cpu: 
CALL IN NOW CGRA_Execution.
60479000: system.cpu: 

 ~~~~~~ CGRA_Execution @ numCycles = 4 ~~~~~~~
60479000: global: 
******** DB INPUT2 ReadAddress = 0************
60479000: global: 
******** DB INPUT2 ReadAddress = 0************
60479000: global: 
******** DB INPUT2 ReadAddress = 0************
60479000: global: 
******** DB INPUT2 ReadAddress = 0************
60479000: system.cpu: Ins: 5335171072, 13e004000 @ PE 0
60479000: global: Predictor bit: 1	 Opcode: 3
60479000: global: 
Input1 = 0	Input2 = 1
60479000: global: 
******** LDUI IN THIS PE 0************
60479000: global: 
************** WE *****************
60479000: global: 
WRITE: REG NUMBER: 0 dist: 0
60479000: global: R0: 1	R1: 0	R2: 0	R3: 0
60479000: global: 
WRITE: FPREG NUMBER: 0 dist: 0
60479000: global: FPR0: 1	FPR1: 0	FPR2: 0	FPR3: 0
60479000: global: Writing output 1 to register 0
60479000: global: Distance is: 0
60479000: system.cpu: Cond Reg = 1
60479000: global: CGRAPE.cpp::getController_Reg: Controller_Reg = 1
60479000: system.cpu: Conditional reg is 1 : Len = 14
60479000: system.cpu: Ins: 6306136064, 177e00000 @ PE 1
60479000: global: Predictor bit: 0	 Opcode: 7
60479000: global: CGRA: NOOP.Execute()
60479000: global: Distance is: 0
60479000: system.cpu: Cond Reg = 1
60479000: system.cpu: Conditional reg is 1 : Len = 14
60479000: system.cpu: Ins: 6306136064, 177e00000 @ PE 2
60479000: global: Predictor bit: 0	 Opcode: 7
60479000: global: CGRA: NOOP.Execute()
60479000: global: Distance is: 0
60479000: system.cpu: Cond Reg = 1
60479000: system.cpu: Conditional reg is 1 : Len = 14
60479000: system.cpu: Ins: 6306136064, 177e00000 @ PE 3
60479000: global: Predictor bit: 0	 Opcode: 7
60479000: global: CGRA: NOOP.Execute()
60479000: global: Distance is: 0
60479000: system.cpu: Cond Reg = 1
60479000: system.cpu: Conditional reg is 1 : Len = 14
60479000: system.cpu: Ins: 6306136064, 177e00000 @ PE 4
60479000: global: Predictor bit: 0	 Opcode: 7
60479000: global: CGRA: NOOP.Execute()
60479000: global: Distance is: 0
60479000: system.cpu: Cond Reg = 1
60479000: system.cpu: Conditional reg is 1 : Len = 14
60479000: system.cpu: Ins: 6306136064, 177e00000 @ PE 5
60479000: global: Predictor bit: 0	 Opcode: 7
60479000: global: CGRA: NOOP.Execute()
60479000: global: Distance is: 0
60479000: system.cpu: Cond Reg = 1
60479000: system.cpu: Conditional reg is 1 : Len = 14
60479000: system.cpu: Ins: 6306136064, 177e00000 @ PE 6
60479000: global: Predictor bit: 0	 Opcode: 7
60479000: global: CGRA: NOOP.Execute()
60479000: global: Distance is: 0
60479000: system.cpu: Cond Reg = 1
60479000: system.cpu: Conditional reg is 1 : Len = 14
60479000: system.cpu: Ins: 6306136064, 177e00000 @ PE 7
60479000: global: Predictor bit: 0	 Opcode: 7
60479000: global: CGRA: NOOP.Execute()
60479000: global: Distance is: 0
60479000: system.cpu: Cond Reg = 1
60479000: system.cpu: Conditional reg is 1 : Len = 14
60479000: system.cpu: Ins: 6306136064, 177e00000 @ PE 8
60479000: global: Predictor bit: 0	 Opcode: 7
60479000: global: CGRA: NOOP.Execute()
60479000: global: Distance is: 0
60479000: system.cpu: Cond Reg = 1
60479000: system.cpu: Conditional reg is 1 : Len = 14
60479000: system.cpu: Ins: 5335236608, 13e014000 @ PE 9
60479000: global: Predictor bit: 1	 Opcode: 3
60479000: global: 
Input1 = 0	Input2 = 0
60479000: global: 
******** LDUI IN THIS PE 0************
60479000: global: 
************** WE *****************
60479000: global: 
WRITE: REG NUMBER: 2 dist: 0
60479000: global: R0: 0	R1: 0	R2: 632404	R3: 0
60479000: global: 
WRITE: FPREG NUMBER: 2 dist: 0
60479000: global: FPR0: 0	FPR1: 0	FPR2: 632404	FPR3: 0
60479000: global: Writing output 632404 to register 2
60479000: global: Distance is: 0
60479000: system.cpu: Cond Reg = 1
60479000: global: CGRAPE.cpp::getController_Reg: Controller_Reg = 1
60479000: system.cpu: Conditional reg is 1 : Len = 14
60479000: system.cpu: Ins: 5335171072, 13e004000 @ PE 10
60479000: global: Predictor bit: 1	 Opcode: 3
60479000: global: 
Input1 = 0	Input2 = 632404
60479000: global: 
******** LDUI IN THIS PE 0************
60479000: global: 
************** WE *****************
60479000: global: 
WRITE: REG NUMBER: 0 dist: 0
60479000: global: R0: 632404	R1: 0	R2: 0	R3: 0
60479000: global: 
WRITE: FPREG NUMBER: 0 dist: 0
60479000: global: FPR0: 632404	FPR1: 0	FPR2: 0	FPR3: 0
60479000: global: Writing output 632404 to register 0
60479000: global: Distance is: 0
60479000: system.cpu: Cond Reg = 1
60479000: global: CGRAPE.cpp::getController_Reg: Controller_Reg = 1
60479000: system.cpu: Conditional reg is 1 : Len = 14
60479000: system.cpu: Ins: 6306136064, 177e00000 @ PE 11
60479000: global: Predictor bit: 0	 Opcode: 7
60479000: global: CGRA: NOOP.Execute()
60479000: global: Distance is: 0
60479000: system.cpu: Cond Reg = 1
60479000: system.cpu: Conditional reg is 1 : Len = 14
60479000: system.cpu: Ins: 6306136064, 177e00000 @ PE 12
60479000: global: Predictor bit: 0	 Opcode: 7
60479000: global: CGRA: NOOP.Execute()
60479000: global: Distance is: 0
60479000: system.cpu: Cond Reg = 1
60479000: system.cpu: Conditional reg is 1 : Len = 14
60479000: system.cpu: Ins: 5335171072, 13e004000 @ PE 13
60479000: global: Predictor bit: 1	 Opcode: 3
60479000: global: 
Input1 = 0	Input2 = 632392
60479000: global: 
******** LDUI IN THIS PE 0************
60479000: global: 
************** WE *****************
60479000: global: 
WRITE: REG NUMBER: 0 dist: 0
60479000: global: R0: 632392	R1: 0	R2: 0	R3: 0
60479000: global: 
WRITE: FPREG NUMBER: 0 dist: 0
60479000: global: FPR0: 632392	FPR1: 0	FPR2: 0	FPR3: 0
60479000: global: Writing output 632392 to register 0
60479000: global: Distance is: 0
60479000: system.cpu: Cond Reg = 1
60479000: global: CGRAPE.cpp::getController_Reg: Controller_Reg = 1
60479000: system.cpu: Conditional reg is 1 : Len = 14
60479000: system.cpu: Ins: 6306136064, 177e00000 @ PE 14
60479000: global: Predictor bit: 0	 Opcode: 7
60479000: global: CGRA: NOOP.Execute()
60479000: global: Distance is: 0
60479000: system.cpu: Cond Reg = 1
60479000: system.cpu: Conditional reg is 1 : Len = 14
60479000: system.cpu: Ins: 6306136064, 177e00000 @ PE 15
60479000: global: Predictor bit: 0	 Opcode: 7
60479000: global: CGRA: NOOP.Execute()
60479000: global: Distance is: 0
60479000: system.cpu: Cond Reg = 1
60479000: system.cpu: Conditional reg is 1 : Len = 14
60479000: system.cpu: Conditional reg is 1 : Len = 14
60479000: system.cpu: CGRA advanceTime complete.
60479000: system.cpu: *******IN ADVANCE PC******
60479000: system.cpu: build/ARM/cpu/atomiccgra/atomiccgra.cc,CGRA_advancePC,1761,PC:a5d68
60479000: system.cpu: Passed Complete Drain().
60479000: system.cpu: Make latency status=1.
60479000: system.cpu: Inside status idle.
60479000: system.cpu: Exiting schedule events
60479000: system.cpu: We are here after Execution
60479500: system.cpu: Inside CGRA Execution else statement.
60479500: system.cpu: Inside CGRA_Execution block.
60479500: system.cpu: 
CALL IN NOW CGRA_Execution.
60479500: system.cpu: 

 ~~~~~~ CGRA_Execution @ numCycles = 5 ~~~~~~~
60479500: global: 
******** DB INPUT2 ReadAddress = 0************
60479500: global: 
******** DB INPUT1 ReadAddress = 0************
60479500: system.cpu: Ins: 4798332930, 11e00c002 @ PE 0
60479500: global: Predictor bit: 1	 Opcode: 1
60479500: global: 
Input1 = 2	Input2 = 1
60479500: global: 
******** LDI IN THIS PE 2************
60479500: global: 
************** WE *****************
60479500: global: 
WRITE: REG NUMBER: 1 dist: 0
60479500: global: R0: 1	R1: 2	R2: 0	R3: 0
60479500: global: 
WRITE: FPREG NUMBER: 1 dist: 0
60479500: global: FPR0: 1	FPR1: 2	FPR2: 0	FPR3: 0
60479500: global: Writing output 2 to register 1
60479500: global: Distance is: 0
60479500: system.cpu: Cond Reg = 1
60479500: global: CGRAPE.cpp::getController_Reg: Controller_Reg = 1
60479500: system.cpu: Conditional reg is 1 : Len = 13
60479500: system.cpu: Ins: 6306136064, 177e00000 @ PE 1
60479500: global: Predictor bit: 0	 Opcode: 7
60479500: global: CGRA: NOOP.Execute()
60479500: global: Distance is: 0
60479500: system.cpu: Cond Reg = 1
60479500: system.cpu: Conditional reg is 1 : Len = 13
60479500: system.cpu: Ins: 6306136064, 177e00000 @ PE 2
60479500: global: Predictor bit: 0	 Opcode: 7
60479500: global: CGRA: NOOP.Execute()
60479500: global: Distance is: 0
60479500: system.cpu: Cond Reg = 1
60479500: system.cpu: Conditional reg is 1 : Len = 13
60479500: system.cpu: Ins: 6306136064, 177e00000 @ PE 3
60479500: global: Predictor bit: 0	 Opcode: 7
60479500: global: CGRA: NOOP.Execute()
60479500: global: Distance is: 0
60479500: system.cpu: Cond Reg = 1
60479500: system.cpu: Conditional reg is 1 : Len = 13
60479500: system.cpu: Ins: 6306136064, 177e00000 @ PE 4
60479500: global: Predictor bit: 0	 Opcode: 7
60479500: global: CGRA: NOOP.Execute()
60479500: global: Distance is: 0
60479500: system.cpu: Cond Reg = 1
60479500: system.cpu: Conditional reg is 1 : Len = 13
60479500: system.cpu: Ins: 6306136064, 177e00000 @ PE 5
60479500: global: Predictor bit: 0	 Opcode: 7
60479500: global: CGRA: NOOP.Execute()
60479500: global: Distance is: 0
60479500: system.cpu: Cond Reg = 1
60479500: system.cpu: Conditional reg is 1 : Len = 13
60479500: system.cpu: Ins: 6306136064, 177e00000 @ PE 6
60479500: global: Predictor bit: 0	 Opcode: 7
60479500: global: CGRA: NOOP.Execute()
60479500: global: Distance is: 0
60479500: system.cpu: Cond Reg = 1
60479500: system.cpu: Conditional reg is 1 : Len = 13
60479500: system.cpu: Ins: 6306136064, 177e00000 @ PE 7
60479500: global: Predictor bit: 0	 Opcode: 7
60479500: global: CGRA: NOOP.Execute()
60479500: global: Distance is: 0
60479500: system.cpu: Cond Reg = 1
60479500: system.cpu: Conditional reg is 1 : Len = 13
60479500: system.cpu: Ins: 6306136064, 177e00000 @ PE 8
60479500: global: Predictor bit: 0	 Opcode: 7
60479500: global: CGRA: NOOP.Execute()
60479500: global: Distance is: 0
60479500: system.cpu: Cond Reg = 1
60479500: system.cpu: Conditional reg is 1 : Len = 13
60479500: system.cpu: Ins: 6306136064, 177e00000 @ PE 9
60479500: global: Predictor bit: 0	 Opcode: 7
60479500: global: CGRA: NOOP.Execute()
60479500: global: Distance is: 0
60479500: system.cpu: Cond Reg = 1
60479500: system.cpu: Conditional reg is 1 : Len = 13
60479500: system.cpu: Ins: 6306136064, 177e00000 @ PE 10
60479500: global: Predictor bit: 0	 Opcode: 7
60479500: global: CGRA: NOOP.Execute()
60479500: global: Distance is: 0
60479500: system.cpu: Cond Reg = 1
60479500: system.cpu: Conditional reg is 1 : Len = 13
60479500: system.cpu: Ins: 6306136064, 177e00000 @ PE 11
60479500: global: Predictor bit: 0	 Opcode: 7
60479500: global: CGRA: NOOP.Execute()
60479500: global: Distance is: 0
60479500: system.cpu: Cond Reg = 1
60479500: system.cpu: Conditional reg is 1 : Len = 13
60479500: system.cpu: Ins: 6306136064, 177e00000 @ PE 12
60479500: global: Predictor bit: 0	 Opcode: 7
60479500: global: CGRA: NOOP.Execute()
60479500: global: Distance is: 0
60479500: system.cpu: Cond Reg = 1
60479500: system.cpu: Conditional reg is 1 : Len = 13
60479500: system.cpu: Ins: 6052388868, 168c02004 @ PE 13
60479500: global: Predictor bit: 1	 Opcode: 6
60479500: global: 
Input1 = 632392	Input2 = 4
60479500: global: 
******** ADDRESS GENERATED IN THIS PE 632392************
60479500: global: 
*********Setting Address 9a648 ******
60479500: global: Distance is: 0
60479500: system.cpu: Cond Reg = 1
60479500: global: CGRAPE.cpp::getController_Reg: Controller_Reg = 1
60479500: system.cpu: Conditional reg is 1 : Len = 13
60479500: system.cpu: Ins: 6306136064, 177e00000 @ PE 14
60479500: global: Predictor bit: 0	 Opcode: 7
60479500: global: CGRA: NOOP.Execute()
60479500: global: Distance is: 0
60479500: system.cpu: Cond Reg = 1
60479500: system.cpu: Conditional reg is 1 : Len = 13
60479500: system.cpu: Ins: 6306136064, 177e00000 @ PE 15
60479500: global: Predictor bit: 0	 Opcode: 7
60479500: global: CGRA: NOOP.Execute()
60479500: global: Distance is: 0
60479500: system.cpu: Cond Reg = 1
60479500: system.cpu: Conditional reg is 1 : Len = 13
60479500: system.cpu: Conditional reg is 1 : Len = 13

************* MEM READ *************
Row: 3 - address: 632392 - data: 5
60479500: system.cpu: CGRA advanceTime complete.
60479500: system.cpu: *******IN ADVANCE PC******
60479500: system.cpu: build/ARM/cpu/atomiccgra/atomiccgra.cc,CGRA_advancePC,1761,PC:a5de8
60479500: system.cpu: Passed Complete Drain().
60479500: system.cpu: Make latency status=1.
60479500: system.cpu: Inside status idle.
60479500: system.cpu: Exiting schedule events
60479500: system.cpu: We are here after Execution
60480000: system.cpu: Inside CGRA Execution else statement.
60480000: system.cpu: Inside CGRA_Execution block.
60480000: system.cpu: 
CALL IN NOW CGRA_Execution.
60480000: system.cpu: 

 ~~~~~~ CGRA_Execution @ numCycles = 6 ~~~~~~~
60480000: global: 
******** DB INPUT2 ReadAddress = 0************
60480000: global: 
******** DB INPUT1 = 5************
60480000: system.cpu: Ins: 5066768384, 12e00c000 @ PE 0
60480000: global: Predictor bit: 1	 Opcode: 2
60480000: global: 
Input1 = 0	Input2 = 1
60480000: global: 
******** LDMI IN THIS PE 0************
60480000: global: 
************** WE *****************
60480000: global: 
WRITE: REG NUMBER: 1 dist: 0
60480000: global: R0: 1	R1: 2	R2: 0	R3: 0
60480000: global: 
WRITE: FPREG NUMBER: 1 dist: 0
60480000: global: FPR0: 1	FPR1: 2	FPR2: 0	FPR3: 0
60480000: global: Writing output 2 to register 1
60480000: global: Distance is: 0
60480000: system.cpu: Cond Reg = 1
60480000: global: CGRAPE.cpp::getController_Reg: Controller_Reg = 1
60480000: system.cpu: Conditional reg is 1 : Len = 12
60480000: system.cpu: Ins: 6306136064, 177e00000 @ PE 1
60480000: global: Predictor bit: 0	 Opcode: 7
60480000: global: CGRA: NOOP.Execute()
60480000: global: Distance is: 0
60480000: system.cpu: Cond Reg = 1
60480000: system.cpu: Conditional reg is 1 : Len = 12
60480000: system.cpu: Ins: 6306136064, 177e00000 @ PE 2
60480000: global: Predictor bit: 0	 Opcode: 7
60480000: global: CGRA: NOOP.Execute()
60480000: global: Distance is: 0
60480000: system.cpu: Cond Reg = 1
60480000: system.cpu: Conditional reg is 1 : Len = 12
60480000: system.cpu: Ins: 6306136064, 177e00000 @ PE 3
60480000: global: Predictor bit: 0	 Opcode: 7
60480000: global: CGRA: NOOP.Execute()
60480000: global: Distance is: 0
60480000: system.cpu: Cond Reg = 1
60480000: system.cpu: Conditional reg is 1 : Len = 12
60480000: system.cpu: Ins: 6306136064, 177e00000 @ PE 4
60480000: global: Predictor bit: 0	 Opcode: 7
60480000: global: CGRA: NOOP.Execute()
60480000: global: Distance is: 0
60480000: system.cpu: Cond Reg = 1
60480000: system.cpu: Conditional reg is 1 : Len = 12
60480000: system.cpu: Ins: 6306136064, 177e00000 @ PE 5
60480000: global: Predictor bit: 0	 Opcode: 7
60480000: global: CGRA: NOOP.Execute()
60480000: global: Distance is: 0
60480000: system.cpu: Cond Reg = 1
60480000: system.cpu: Conditional reg is 1 : Len = 12
60480000: system.cpu: Ins: 6306136064, 177e00000 @ PE 6
60480000: global: Predictor bit: 0	 Opcode: 7
60480000: global: CGRA: NOOP.Execute()
60480000: global: Distance is: 0
60480000: system.cpu: Cond Reg = 1
60480000: system.cpu: Conditional reg is 1 : Len = 12
60480000: system.cpu: Ins: 6306136064, 177e00000 @ PE 7
60480000: global: Predictor bit: 0	 Opcode: 7
60480000: global: CGRA: NOOP.Execute()
60480000: global: Distance is: 0
60480000: system.cpu: Cond Reg = 1
60480000: system.cpu: Conditional reg is 1 : Len = 12
60480000: system.cpu: Ins: 6306136064, 177e00000 @ PE 8
60480000: global: Predictor bit: 0	 Opcode: 7
60480000: global: CGRA: NOOP.Execute()
60480000: global: Distance is: 0
60480000: system.cpu: Cond Reg = 1
60480000: system.cpu: Conditional reg is 1 : Len = 12
60480000: system.cpu: Ins: 6306136064, 177e00000 @ PE 9
60480000: global: Predictor bit: 0	 Opcode: 7
60480000: global: CGRA: NOOP.Execute()
60480000: global: Distance is: 0
60480000: system.cpu: Cond Reg = 1
60480000: system.cpu: Conditional reg is 1 : Len = 12
60480000: system.cpu: Ins: 6306136064, 177e00000 @ PE 10
60480000: global: Predictor bit: 0	 Opcode: 7
60480000: global: CGRA: NOOP.Execute()
60480000: global: Distance is: 0
60480000: system.cpu: Cond Reg = 1
60480000: system.cpu: Conditional reg is 1 : Len = 12
60480000: system.cpu: Ins: 6306136064, 177e00000 @ PE 11
60480000: global: Predictor bit: 0	 Opcode: 7
60480000: global: CGRA: NOOP.Execute()
60480000: global: Distance is: 0
60480000: system.cpu: Cond Reg = 1
60480000: system.cpu: Conditional reg is 1 : Len = 12
60480000: system.cpu: Ins: 6306136064, 177e00000 @ PE 12
60480000: global: Predictor bit: 0	 Opcode: 7
60480000: global: CGRA: NOOP.Execute()
60480000: global: Distance is: 0
60480000: system.cpu: Cond Reg = 1
60480000: system.cpu: Conditional reg is 1 : Len = 12
60480000: system.cpu: Ins: 4391452672, 105c04000 @ PE 13
60480000: global: Predictor bit: 0	 Opcode: 0
60480000: global: 
Input1 = 5	Input2 = 0
60480000: global: 
******** SUM IN THIS PE 5************
60480000: global: 
WRITE: REG NUMBER: 0 dist: 0
60480000: global: R0: 5	R1: 0	R2: 0	R3: 0
60480000: global: 
WRITE: FPREG NUMBER: 0 dist: 0
60480000: global: FPR0: 5	FPR1: 0	FPR2: 0	FPR3: 0
60480000: global: Writing output 5 to register 0
60480000: global: Distance is: 0
60480000: system.cpu: Cond Reg = 1
60480000: global: CGRAPE.cpp::getController_Reg: Controller_Reg = 1
60480000: system.cpu: Conditional reg is 1 : Len = 12
60480000: system.cpu: Ins: 6306136064, 177e00000 @ PE 14
60480000: global: Predictor bit: 0	 Opcode: 7
60480000: global: CGRA: NOOP.Execute()
60480000: global: Distance is: 0
60480000: system.cpu: Cond Reg = 1
60480000: system.cpu: Conditional reg is 1 : Len = 12
60480000: system.cpu: Ins: 6306136064, 177e00000 @ PE 15
60480000: global: Predictor bit: 0	 Opcode: 7
60480000: global: CGRA: NOOP.Execute()
60480000: global: Distance is: 0
60480000: system.cpu: Cond Reg = 1
60480000: system.cpu: Conditional reg is 1 : Len = 12
60480000: system.cpu: Conditional reg is 1 : Len = 12

************* MEM READ *************
Row: 3 - address: 632392 - data: 5
60480000: system.cpu: CGRA advanceTime complete.
60480000: system.cpu: *******IN ADVANCE PC******
60480000: system.cpu: build/ARM/cpu/atomiccgra/atomiccgra.cc,CGRA_advancePC,1761,PC:a5e68
60480000: system.cpu: Passed Complete Drain().
60480000: system.cpu: Make latency status=1.
60480000: system.cpu: Inside status idle.
60480000: system.cpu: Exiting schedule events
60480000: system.cpu: We are here after Execution
60480500: system.cpu: Inside CGRA Execution else statement.
60480500: system.cpu: Inside CGRA_Execution block.
60480500: system.cpu: 
CALL IN NOW CGRA_Execution.
60480500: system.cpu: 

 ~~~~~~ CGRA_Execution @ numCycles = 7 ~~~~~~~
60480500: global: 
******** DB INPUT2 ReadAddress = 0************
60480500: global: 
******** DB INPUT2 ReadAddress = 0************
60480500: system.cpu: Ins: 5335203840, 13e00c000 @ PE 0
60480500: global: Predictor bit: 1	 Opcode: 3
60480500: global: 
Input1 = 0	Input2 = 1
60480500: global: 
******** LDUI IN THIS PE 0************
60480500: global: 
************** WE *****************
60480500: global: 
WRITE: REG NUMBER: 1 dist: 0
60480500: global: R0: 1	R1: 2	R2: 0	R3: 0
60480500: global: 
WRITE: FPREG NUMBER: 1 dist: 0
60480500: global: FPR0: 1	FPR1: 2	FPR2: 0	FPR3: 0
60480500: global: Writing output 2 to register 1
60480500: global: Distance is: 0
60480500: system.cpu: Cond Reg = 1
60480500: global: CGRAPE.cpp::getController_Reg: Controller_Reg = 1
60480500: system.cpu: Conditional reg is 1 : Len = 11
60480500: system.cpu: Ins: 6306136064, 177e00000 @ PE 1
60480500: global: Predictor bit: 0	 Opcode: 7
60480500: global: CGRA: NOOP.Execute()
60480500: global: Distance is: 0
60480500: system.cpu: Cond Reg = 1
60480500: system.cpu: Conditional reg is 1 : Len = 11
60480500: system.cpu: Ins: 6306136064, 177e00000 @ PE 2
60480500: global: Predictor bit: 0	 Opcode: 7
60480500: global: CGRA: NOOP.Execute()
60480500: global: Distance is: 0
60480500: system.cpu: Cond Reg = 1
60480500: system.cpu: Conditional reg is 1 : Len = 11
60480500: system.cpu: Ins: 6306136064, 177e00000 @ PE 3
60480500: global: Predictor bit: 0	 Opcode: 7
60480500: global: CGRA: NOOP.Execute()
60480500: global: Distance is: 0
60480500: system.cpu: Cond Reg = 1
60480500: system.cpu: Conditional reg is 1 : Len = 11
60480500: system.cpu: Ins: 6306136064, 177e00000 @ PE 4
60480500: global: Predictor bit: 0	 Opcode: 7
60480500: global: CGRA: NOOP.Execute()
60480500: global: Distance is: 0
60480500: system.cpu: Cond Reg = 1
60480500: system.cpu: Conditional reg is 1 : Len = 11
60480500: system.cpu: Ins: 6306136064, 177e00000 @ PE 5
60480500: global: Predictor bit: 0	 Opcode: 7
60480500: global: CGRA: NOOP.Execute()
60480500: global: Distance is: 0
60480500: system.cpu: Cond Reg = 1
60480500: system.cpu: Conditional reg is 1 : Len = 11
60480500: system.cpu: Ins: 6306136064, 177e00000 @ PE 6
60480500: global: Predictor bit: 0	 Opcode: 7
60480500: global: CGRA: NOOP.Execute()
60480500: global: Distance is: 0
60480500: system.cpu: Cond Reg = 1
60480500: system.cpu: Conditional reg is 1 : Len = 11
60480500: system.cpu: Ins: 6306136064, 177e00000 @ PE 7
60480500: global: Predictor bit: 0	 Opcode: 7
60480500: global: CGRA: NOOP.Execute()
60480500: global: Distance is: 0
60480500: system.cpu: Cond Reg = 1
60480500: system.cpu: Conditional reg is 1 : Len = 11
60480500: system.cpu: Ins: 6306136064, 177e00000 @ PE 8
60480500: global: Predictor bit: 0	 Opcode: 7
60480500: global: CGRA: NOOP.Execute()
60480500: global: Distance is: 0
60480500: system.cpu: Cond Reg = 1
60480500: system.cpu: Conditional reg is 1 : Len = 11
60480500: system.cpu: Ins: 6306136064, 177e00000 @ PE 9
60480500: global: Predictor bit: 0	 Opcode: 7
60480500: global: CGRA: NOOP.Execute()
60480500: global: Distance is: 0
60480500: system.cpu: Cond Reg = 1
60480500: system.cpu: Conditional reg is 1 : Len = 11
60480500: system.cpu: Ins: 6306136064, 177e00000 @ PE 10
60480500: global: Predictor bit: 0	 Opcode: 7
60480500: global: CGRA: NOOP.Execute()
60480500: global: Distance is: 0
60480500: system.cpu: Cond Reg = 1
60480500: system.cpu: Conditional reg is 1 : Len = 11
60480500: system.cpu: Ins: 6306136064, 177e00000 @ PE 11
60480500: global: Predictor bit: 0	 Opcode: 7
60480500: global: CGRA: NOOP.Execute()
60480500: global: Distance is: 0
60480500: system.cpu: Cond Reg = 1
60480500: system.cpu: Conditional reg is 1 : Len = 11
60480500: system.cpu: Ins: 6306136064, 177e00000 @ PE 12
60480500: global: Predictor bit: 0	 Opcode: 7
60480500: global: CGRA: NOOP.Execute()
60480500: global: Distance is: 0
60480500: system.cpu: Cond Reg = 1
60480500: system.cpu: Conditional reg is 1 : Len = 11
60480500: system.cpu: Ins: 4798367304, 11e014648 @ PE 13
60480500: global: Predictor bit: 1	 Opcode: 1
60480500: global: 
Input1 = 1608	Input2 = 5
60480500: global: 
******** LDI IN THIS PE 1608************
60480500: global: 
************** WE *****************
60480500: global: 
WRITE: REG NUMBER: 2 dist: 0
60480500: global: R0: 5	R1: 0	R2: 1608	R3: 0
60480500: global: 
WRITE: FPREG NUMBER: 2 dist: 0
60480500: global: FPR0: 5	FPR1: 0	FPR2: 1608	FPR3: 0
60480500: global: Writing output 1608 to register 2
60480500: global: Distance is: 0
60480500: system.cpu: Cond Reg = 1
60480500: global: CGRAPE.cpp::getController_Reg: Controller_Reg = 1
60480500: system.cpu: Conditional reg is 1 : Len = 11
60480500: system.cpu: Ins: 6306136064, 177e00000 @ PE 14
60480500: global: Predictor bit: 0	 Opcode: 7
60480500: global: CGRA: NOOP.Execute()
60480500: global: Distance is: 0
60480500: system.cpu: Cond Reg = 1
60480500: system.cpu: Conditional reg is 1 : Len = 11
60480500: system.cpu: Ins: 6306136064, 177e00000 @ PE 15
60480500: global: Predictor bit: 0	 Opcode: 7
60480500: global: CGRA: NOOP.Execute()
60480500: global: Distance is: 0
60480500: system.cpu: Cond Reg = 1
60480500: system.cpu: Conditional reg is 1 : Len = 11
60480500: system.cpu: Conditional reg is 1 : Len = 11

************* MEM READ *************
Row: 3 - address: 632392 - data: 5
60480500: system.cpu: CGRA advanceTime complete.
60480500: system.cpu: *******IN ADVANCE PC******
60480500: system.cpu: build/ARM/cpu/atomiccgra/atomiccgra.cc,CGRA_advancePC,1761,PC:a5ee8
60480500: system.cpu: Passed Complete Drain().
60480500: system.cpu: Make latency status=1.
60480500: system.cpu: Inside status idle.
60480500: system.cpu: Exiting schedule events
60480500: system.cpu: We are here after Execution
60481000: system.cpu: Inside CGRA Execution else statement.
60481000: system.cpu: Inside CGRA_Execution block.
60481000: system.cpu: 
CALL IN NOW CGRA_Execution.
60481000: system.cpu: 

 ~~~~~~ CGRA_Execution @ numCycles = 8 ~~~~~~~
60481000: global: 
******** DB INPUT2 ReadAddress = 0************
60481000: system.cpu: Ins: 6306136064, 177e00000 @ PE 0
60481000: global: Predictor bit: 0	 Opcode: 7
60481000: global: CGRA: NOOP.Execute()
60481000: global: Distance is: 0
60481000: system.cpu: Cond Reg = 1
60481000: system.cpu: Conditional reg is 1 : Len = 10
60481000: system.cpu: Ins: 6306136064, 177e00000 @ PE 1
60481000: global: Predictor bit: 0	 Opcode: 7
60481000: global: CGRA: NOOP.Execute()
60481000: global: Distance is: 0
60481000: system.cpu: Cond Reg = 1
60481000: system.cpu: Conditional reg is 1 : Len = 10
60481000: system.cpu: Ins: 6306136064, 177e00000 @ PE 2
60481000: global: Predictor bit: 0	 Opcode: 7
60481000: global: CGRA: NOOP.Execute()
60481000: global: Distance is: 0
60481000: system.cpu: Cond Reg = 1
60481000: system.cpu: Conditional reg is 1 : Len = 10
60481000: system.cpu: Ins: 6306136064, 177e00000 @ PE 3
60481000: global: Predictor bit: 0	 Opcode: 7
60481000: global: CGRA: NOOP.Execute()
60481000: global: Distance is: 0
60481000: system.cpu: Cond Reg = 1
60481000: system.cpu: Conditional reg is 1 : Len = 10
60481000: system.cpu: Ins: 6306136064, 177e00000 @ PE 4
60481000: global: Predictor bit: 0	 Opcode: 7
60481000: global: CGRA: NOOP.Execute()
60481000: global: Distance is: 0
60481000: system.cpu: Cond Reg = 1
60481000: system.cpu: Conditional reg is 1 : Len = 10
60481000: system.cpu: Ins: 6306136064, 177e00000 @ PE 5
60481000: global: Predictor bit: 0	 Opcode: 7
60481000: global: CGRA: NOOP.Execute()
60481000: global: Distance is: 0
60481000: system.cpu: Cond Reg = 1
60481000: system.cpu: Conditional reg is 1 : Len = 10
60481000: system.cpu: Ins: 6306136064, 177e00000 @ PE 6
60481000: global: Predictor bit: 0	 Opcode: 7
60481000: global: CGRA: NOOP.Execute()
60481000: global: Distance is: 0
60481000: system.cpu: Cond Reg = 1
60481000: system.cpu: Conditional reg is 1 : Len = 10
60481000: system.cpu: Ins: 6306136064, 177e00000 @ PE 7
60481000: global: Predictor bit: 0	 Opcode: 7
60481000: global: CGRA: NOOP.Execute()
60481000: global: Distance is: 0
60481000: system.cpu: Cond Reg = 1
60481000: system.cpu: Conditional reg is 1 : Len = 10
60481000: system.cpu: Ins: 6306136064, 177e00000 @ PE 8
60481000: global: Predictor bit: 0	 Opcode: 7
60481000: global: CGRA: NOOP.Execute()
60481000: global: Distance is: 0
60481000: system.cpu: Cond Reg = 1
60481000: system.cpu: Conditional reg is 1 : Len = 10
60481000: system.cpu: Ins: 6306136064, 177e00000 @ PE 9
60481000: global: Predictor bit: 0	 Opcode: 7
60481000: global: CGRA: NOOP.Execute()
60481000: global: Distance is: 0
60481000: system.cpu: Cond Reg = 1
60481000: system.cpu: Conditional reg is 1 : Len = 10
60481000: system.cpu: Ins: 6306136064, 177e00000 @ PE 10
60481000: global: Predictor bit: 0	 Opcode: 7
60481000: global: CGRA: NOOP.Execute()
60481000: global: Distance is: 0
60481000: system.cpu: Cond Reg = 1
60481000: system.cpu: Conditional reg is 1 : Len = 10
60481000: system.cpu: Ins: 6306136064, 177e00000 @ PE 11
60481000: global: Predictor bit: 0	 Opcode: 7
60481000: global: CGRA: NOOP.Execute()
60481000: global: Distance is: 0
60481000: system.cpu: Cond Reg = 1
60481000: system.cpu: Conditional reg is 1 : Len = 10
60481000: system.cpu: Ins: 6306136064, 177e00000 @ PE 12
60481000: global: Predictor bit: 0	 Opcode: 7
60481000: global: CGRA: NOOP.Execute()
60481000: global: Distance is: 0
60481000: system.cpu: Cond Reg = 1
60481000: system.cpu: Conditional reg is 1 : Len = 10
60481000: system.cpu: Ins: 5066801306, 12e01409a @ PE 13
60481000: global: Predictor bit: 1	 Opcode: 2
60481000: global: 
Input1 = 154	Input2 = 5
60481000: global: 
******** LDMI IN THIS PE 154************
60481000: global: 
************** WE *****************
60481000: global: 
WRITE: REG NUMBER: 2 dist: 0
60481000: global: R0: 5	R1: 0	R2: 632392	R3: 0
60481000: global: 
WRITE: FPREG NUMBER: 2 dist: 0
60481000: global: FPR0: 5	FPR1: 0	FPR2: 632392	FPR3: 0
60481000: global: Writing output 632392 to register 2
60481000: global: Distance is: 0
60481000: system.cpu: Cond Reg = 1
60481000: global: CGRAPE.cpp::getController_Reg: Controller_Reg = 1
60481000: system.cpu: Conditional reg is 1 : Len = 10
60481000: system.cpu: Ins: 6306136064, 177e00000 @ PE 14
60481000: global: Predictor bit: 0	 Opcode: 7
60481000: global: CGRA: NOOP.Execute()
60481000: global: Distance is: 0
60481000: system.cpu: Cond Reg = 1
60481000: system.cpu: Conditional reg is 1 : Len = 10
60481000: system.cpu: Ins: 6306136064, 177e00000 @ PE 15
60481000: global: Predictor bit: 0	 Opcode: 7
60481000: global: CGRA: NOOP.Execute()
60481000: global: Distance is: 0
60481000: system.cpu: Cond Reg = 1
60481000: system.cpu: Conditional reg is 1 : Len = 10
60481000: system.cpu: Conditional reg is 1 : Len = 10

************* MEM READ *************
Row: 3 - address: 632392 - data: 5
60481000: system.cpu: CGRA advanceTime complete.
60481000: system.cpu: *******IN ADVANCE PC******
60481000: system.cpu: build/ARM/cpu/atomiccgra/atomiccgra.cc,CGRA_advancePC,1761,PC:a5f68
60481000: system.cpu: Passed Complete Drain().
60481000: system.cpu: Make latency status=1.
60481000: system.cpu: Inside status idle.
60481000: system.cpu: Exiting schedule events
60481000: system.cpu: We are here after Execution
60481500: system.cpu: Inside CGRA Execution else statement.
60481500: system.cpu: Inside CGRA_Execution block.
60481500: system.cpu: 
CALL IN NOW CGRA_Execution.
60481500: system.cpu: 

 ~~~~~~ CGRA_Execution @ numCycles = 9 ~~~~~~~
60481500: global: 
******** DB INPUT1 ReadAddress = 0************
60481500: global: 
******** DB INPUT2 ReadAddress = 0************
60481500: global: 
******** DB INPUT1 ReadAddress = 0************
60481500: global: 
******** DB INPUT2 ReadAddress = 0************
60481500: global: 
******** DB INPUT1 ReadAddress = 0************
60481500: global: 
******** DB INPUT2 ReadAddress = 0************
60481500: global: 
******** DB INPUT1 ReadAddress = 0************
60481500: global: 
******** DB INPUT2 ReadAddress = 0************
60481500: global: 
******** DB INPUT1 ReadAddress = 0************
60481500: global: 
******** DB INPUT2 ReadAddress = 0************
60481500: global: 
******** DB INPUT1 ReadAddress = 0************
60481500: global: 
******** DB INPUT2 ReadAddress = 0************
60481500: global: 
******** DB INPUT1 ReadAddress = 0************
60481500: global: 
******** DB INPUT2 ReadAddress = 0************
60481500: global: 
******** DB INPUT1 ReadAddress = 0************
60481500: global: 
******** DB INPUT2 ReadAddress = 0************
60481500: global: 
******** DB INPUT1 ReadAddress = 0************
60481500: global: 
******** DB INPUT2 ReadAddress = 0************
60481500: global: 
******** DB INPUT1 ReadAddress = 0************
60481500: global: 
******** DB INPUT2 ReadAddress = 0************
60481500: global: 
******** DB INPUT1 ReadAddress = 0************
60481500: global: 
******** DB INPUT2 ReadAddress = 0************
60481500: global: 
******** DB INPUT1 ReadAddress = 0************
60481500: global: 
******** DB INPUT2 ReadAddress = 0************
60481500: global: 
******** DB INPUT1 ReadAddress = 0************
60481500: global: 
******** DB INPUT2 ReadAddress = 0************
60481500: system.cpu: Ins: 6306136064, 177e00000 @ PE 0
60481500: global: Predictor bit: 0	 Opcode: 7
60481500: global: CGRA: NOOP.Execute()
60481500: global: Distance is: 0
60481500: system.cpu: Cond Reg = 1
60481500: system.cpu: Conditional reg is 1 : Len = 9
60481500: system.cpu: Ins: 6306136064, 177e00000 @ PE 1
60481500: global: Predictor bit: 0	 Opcode: 7
60481500: global: CGRA: NOOP.Execute()
60481500: global: Distance is: 0
60481500: system.cpu: Cond Reg = 1
60481500: system.cpu: Conditional reg is 1 : Len = 9
60481500: system.cpu: Ins: 6306136064, 177e00000 @ PE 2
60481500: global: Predictor bit: 0	 Opcode: 7
60481500: global: CGRA: NOOP.Execute()
60481500: global: Distance is: 0
60481500: system.cpu: Cond Reg = 1
60481500: system.cpu: Conditional reg is 1 : Len = 9
60481500: system.cpu: Ins: 0, 0 @ PE 3
60481500: global: Predictor bit: 0	 Opcode: 0
60481500: global: 
Input1 = 0	Input2 = 0
60481500: global: 
******** SUM IN THIS PE 0************
60481500: global: Distance is: 0
60481500: system.cpu: Cond Reg = 1
60481500: global: CGRAPE.cpp::getController_Reg: Controller_Reg = 1
60481500: system.cpu: Conditional reg is 1 : Len = 9
60481500: system.cpu: Ins: 0, 0 @ PE 4
60481500: global: Predictor bit: 0	 Opcode: 0
60481500: global: 
Input1 = 0	Input2 = 0
60481500: global: 
******** SUM IN THIS PE 0************
60481500: global: Distance is: 0
60481500: system.cpu: Cond Reg = 1
60481500: global: CGRAPE.cpp::getController_Reg: Controller_Reg = 1
60481500: system.cpu: Conditional reg is 1 : Len = 9
60481500: system.cpu: Ins: 0, 0 @ PE 5
60481500: global: Predictor bit: 0	 Opcode: 0
60481500: global: 
Input1 = 0	Input2 = 0
60481500: global: 
******** SUM IN THIS PE 0************
60481500: global: Distance is: 0
60481500: system.cpu: Cond Reg = 1
60481500: global: CGRAPE.cpp::getController_Reg: Controller_Reg = 1
60481500: system.cpu: Conditional reg is 1 : Len = 9
60481500: system.cpu: Ins: 0, 0 @ PE 6
60481500: global: Predictor bit: 0	 Opcode: 0
60481500: global: 
Input1 = 0	Input2 = 0
60481500: global: 
******** SUM IN THIS PE 0************
60481500: global: Distance is: 0
60481500: system.cpu: Cond Reg = 1
60481500: global: CGRAPE.cpp::getController_Reg: Controller_Reg = 1
60481500: system.cpu: Conditional reg is 1 : Len = 9
60481500: system.cpu: Ins: 0, 0 @ PE 7
60481500: global: Predictor bit: 0	 Opcode: 0
60481500: global: 
Input1 = 0	Input2 = 0
60481500: global: 
******** SUM IN THIS PE 0************
60481500: global: Distance is: 0
60481500: system.cpu: Cond Reg = 1
60481500: global: CGRAPE.cpp::getController_Reg: Controller_Reg = 1
60481500: system.cpu: Conditional reg is 1 : Len = 9
60481500: system.cpu: Ins: 0, 0 @ PE 8
60481500: global: Predictor bit: 0	 Opcode: 0
60481500: global: 
Input1 = 0	Input2 = 0
60481500: global: 
******** SUM IN THIS PE 0************
60481500: global: Distance is: 0
60481500: system.cpu: Cond Reg = 1
60481500: global: CGRAPE.cpp::getController_Reg: Controller_Reg = 1
60481500: system.cpu: Conditional reg is 1 : Len = 9
60481500: system.cpu: Ins: 0, 0 @ PE 9
60481500: global: Predictor bit: 0	 Opcode: 0
60481500: global: 
Input1 = 0	Input2 = 0
60481500: global: 
******** SUM IN THIS PE 0************
60481500: global: Distance is: 0
60481500: system.cpu: Cond Reg = 1
60481500: global: CGRAPE.cpp::getController_Reg: Controller_Reg = 1
60481500: system.cpu: Conditional reg is 1 : Len = 9
60481500: system.cpu: Ins: 0, 0 @ PE 10
60481500: global: Predictor bit: 0	 Opcode: 0
60481500: global: 
Input1 = 632404	Input2 = 632404
60481500: global: 
******** SUM IN THIS PE 1264808************
60481500: global: Distance is: 0
60481500: system.cpu: Cond Reg = 1
60481500: global: CGRAPE.cpp::getController_Reg: Controller_Reg = 1
60481500: system.cpu: Conditional reg is 1 : Len = 9
60481500: system.cpu: Ins: 0, 0 @ PE 11
60481500: global: Predictor bit: 0	 Opcode: 0
60481500: global: 
Input1 = 0	Input2 = 0
60481500: global: 
******** SUM IN THIS PE 0************
60481500: global: Distance is: 0
60481500: system.cpu: Cond Reg = 1
60481500: global: CGRAPE.cpp::getController_Reg: Controller_Reg = 1
60481500: system.cpu: Conditional reg is 1 : Len = 9
60481500: system.cpu: Ins: 0, 0 @ PE 12
60481500: global: Predictor bit: 0	 Opcode: 0
60481500: global: 
Input1 = 0	Input2 = 0
60481500: global: 
******** SUM IN THIS PE 0************
60481500: global: Distance is: 0
60481500: system.cpu: Cond Reg = 1
60481500: global: CGRAPE.cpp::getController_Reg: Controller_Reg = 1
60481500: system.cpu: Conditional reg is 1 : Len = 9
60481500: system.cpu: Ins: 0, 0 @ PE 13
60481500: global: Predictor bit: 0	 Opcode: 0
60481500: global: 
Input1 = 5	Input2 = 5
60481500: global: 
******** SUM IN THIS PE 10************
60481500: global: Distance is: 0
60481500: system.cpu: Cond Reg = 1
60481500: global: CGRAPE.cpp::getController_Reg: Controller_Reg = 1
60481500: system.cpu: Conditional reg is 1 : Len = 9
60481500: system.cpu: Ins: 0, 0 @ PE 14
60481500: global: Predictor bit: 0	 Opcode: 0
60481500: global: 
Input1 = 0	Input2 = 0
60481500: global: 
******** SUM IN THIS PE 0************
60481500: global: Distance is: 0
60481500: system.cpu: Cond Reg = 1
60481500: global: CGRAPE.cpp::getController_Reg: Controller_Reg = 1
60481500: system.cpu: Conditional reg is 1 : Len = 9
60481500: system.cpu: Ins: 0, 0 @ PE 15
60481500: global: Predictor bit: 0	 Opcode: 0
60481500: global: 
Input1 = 0	Input2 = 0
60481500: global: 
******** SUM IN THIS PE 0************
60481500: global: Distance is: 0
60481500: system.cpu: Cond Reg = 1
60481500: global: CGRAPE.cpp::getController_Reg: Controller_Reg = 1
60481500: system.cpu: Conditional reg is 1 : Len = 9
60481500: system.cpu: Conditional reg is 1 : Len = 9

************* MEM READ *************
Row: 3 - address: 632392 - data: 5
60481500: system.cpu: CGRA advanceTime complete.
60481500: system.cpu: *******IN ADVANCE PC******
60481500: system.cpu: build/ARM/cpu/atomiccgra/atomiccgra.cc,CGRA_advancePC,1761,PC:a5fe8
60481500: system.cpu: Passed Complete Drain().
60481500: system.cpu: Make latency status=1.
60481500: system.cpu: Inside status idle.
60481500: system.cpu: Exiting schedule events
60481500: system.cpu: We are here after Execution
60482000: system.cpu: Inside CGRA Execution else statement.
60482000: system.cpu: Inside CGRA_Execution block.
60482000: system.cpu: 
CALL IN NOW CGRA_Execution.
60482000: system.cpu: 

 ~~~~~~ CGRA_Execution @ numCycles = 10 ~~~~~~~
60482000: global: 
******** DB INPUT1 ReadAddress = 2************
60482000: system.cpu: Ins: 6306136064, 177e00000 @ PE 0
60482000: global: Predictor bit: 0	 Opcode: 7
60482000: global: CGRA: NOOP.Execute()
60482000: global: Distance is: 0
60482000: system.cpu: Cond Reg = 1
60482000: system.cpu: Conditional reg is 1 : Len = 8
60482000: system.cpu: Ins: 6306136064, 177e00000 @ PE 1
60482000: global: Predictor bit: 0	 Opcode: 7
60482000: global: CGRA: NOOP.Execute()
60482000: global: Distance is: 0
60482000: system.cpu: Cond Reg = 1
60482000: system.cpu: Conditional reg is 1 : Len = 8
60482000: system.cpu: Ins: 6306136064, 177e00000 @ PE 2
60482000: global: Predictor bit: 0	 Opcode: 7
60482000: global: CGRA: NOOP.Execute()
60482000: global: Distance is: 0
60482000: system.cpu: Cond Reg = 1
60482000: system.cpu: Conditional reg is 1 : Len = 8
60482000: system.cpu: Ins: 6306136064, 177e00000 @ PE 3
60482000: global: Predictor bit: 0	 Opcode: 7
60482000: global: CGRA: NOOP.Execute()
60482000: global: Distance is: 0
60482000: system.cpu: Cond Reg = 1
60482000: system.cpu: Conditional reg is 1 : Len = 8
60482000: system.cpu: Ins: 6306136064, 177e00000 @ PE 4
60482000: global: Predictor bit: 0	 Opcode: 7
60482000: global: CGRA: NOOP.Execute()
60482000: global: Distance is: 0
60482000: system.cpu: Cond Reg = 1
60482000: system.cpu: Conditional reg is 1 : Len = 8
60482000: system.cpu: Ins: 6306136064, 177e00000 @ PE 5
60482000: global: Predictor bit: 0	 Opcode: 7
60482000: global: CGRA: NOOP.Execute()
60482000: global: Distance is: 0
60482000: system.cpu: Cond Reg = 1
60482000: system.cpu: Conditional reg is 1 : Len = 8
60482000: system.cpu: Ins: 6306136064, 177e00000 @ PE 6
60482000: global: Predictor bit: 0	 Opcode: 7
60482000: global: CGRA: NOOP.Execute()
60482000: global: Distance is: 0
60482000: system.cpu: Cond Reg = 1
60482000: system.cpu: Conditional reg is 1 : Len = 8
60482000: system.cpu: Ins: 6306136064, 177e00000 @ PE 7
60482000: global: Predictor bit: 0	 Opcode: 7
60482000: global: CGRA: NOOP.Execute()
60482000: global: Distance is: 0
60482000: system.cpu: Cond Reg = 1
60482000: system.cpu: Conditional reg is 1 : Len = 8
60482000: system.cpu: Ins: 6306136064, 177e00000 @ PE 8
60482000: global: Predictor bit: 0	 Opcode: 7
60482000: global: CGRA: NOOP.Execute()
60482000: global: Distance is: 0
60482000: system.cpu: Cond Reg = 1
60482000: system.cpu: Conditional reg is 1 : Len = 8
60482000: system.cpu: Ins: 6306136064, 177e00000 @ PE 9
60482000: global: Predictor bit: 0	 Opcode: 7
60482000: global: CGRA: NOOP.Execute()
60482000: global: Distance is: 0
60482000: system.cpu: Cond Reg = 1
60482000: system.cpu: Conditional reg is 1 : Len = 8
60482000: system.cpu: Ins: 6306136064, 177e00000 @ PE 10
60482000: global: Predictor bit: 0	 Opcode: 7
60482000: global: CGRA: NOOP.Execute()
60482000: global: Distance is: 0
60482000: system.cpu: Cond Reg = 1
60482000: system.cpu: Conditional reg is 1 : Len = 8
60482000: system.cpu: Ins: 6306136064, 177e00000 @ PE 11
60482000: global: Predictor bit: 0	 Opcode: 7
60482000: global: CGRA: NOOP.Execute()
60482000: global: Distance is: 0
60482000: system.cpu: Cond Reg = 1
60482000: system.cpu: Conditional reg is 1 : Len = 8
60482000: system.cpu: Ins: 6306136064, 177e00000 @ PE 12
60482000: global: Predictor bit: 0	 Opcode: 7
60482000: global: CGRA: NOOP.Execute()
60482000: global: Distance is: 0
60482000: system.cpu: Cond Reg = 1
60482000: system.cpu: Conditional reg is 1 : Len = 8
60482000: system.cpu: Ins: 6053437444, 168d02004 @ PE 13
60482000: global: Predictor bit: 1	 Opcode: 6
60482000: global: 
Input1 = 632392	Input2 = 4
60482000: global: 
******** ADDRESS GENERATED IN THIS PE 632392************
60482000: global: 
*********Setting Address 9a648 ******
60482000: global: Distance is: 0
60482000: system.cpu: Cond Reg = 1
60482000: global: CGRAPE.cpp::getController_Reg: Controller_Reg = 1
60482000: system.cpu: Conditional reg is 1 : Len = 8
60482000: system.cpu: Ins: 6306136064, 177e00000 @ PE 14
60482000: global: Predictor bit: 0	 Opcode: 7
60482000: global: CGRA: NOOP.Execute()
60482000: global: Distance is: 0
60482000: system.cpu: Cond Reg = 1
60482000: system.cpu: Conditional reg is 1 : Len = 8
60482000: system.cpu: Ins: 6306136064, 177e00000 @ PE 15
60482000: global: Predictor bit: 0	 Opcode: 7
60482000: global: CGRA: NOOP.Execute()
60482000: global: Distance is: 0
60482000: system.cpu: Cond Reg = 1
60482000: system.cpu: Conditional reg is 1 : Len = 8
60482000: system.cpu: Conditional reg is 1 : Len = 8

************* MEM READ *************
Row: 3 - address: 632392 - data: 5
60482000: system.cpu: CGRA advanceTime complete.
60482000: system.cpu: *******IN ADVANCE PC******
60482000: system.cpu: build/ARM/cpu/atomiccgra/atomiccgra.cc,CGRA_advancePC,1761,PC:a6068
60482000: system.cpu: Passed Complete Drain().
60482000: system.cpu: Make latency status=1.
60482000: system.cpu: Inside status idle.
60482000: system.cpu: Exiting schedule events
60482000: system.cpu: We are here after Execution
60482500: system.cpu: Inside CGRA Execution else statement.
60482500: system.cpu: Inside CGRA_Execution block.
60482500: system.cpu: 
CALL IN NOW CGRA_Execution.
60482500: system.cpu: 

 ~~~~~~ CGRA_Execution @ numCycles = 11 ~~~~~~~
60482500: global: 
******** DB INPUT1 = 5************
60482500: system.cpu: Ins: 6306136064, 177e00000 @ PE 0
60482500: global: Predictor bit: 0	 Opcode: 7
60482500: global: CGRA: NOOP.Execute()
60482500: global: Distance is: 0
60482500: system.cpu: Cond Reg = 1
60482500: system.cpu: Conditional reg is 1 : Len = 7
60482500: system.cpu: Ins: 6306136064, 177e00000 @ PE 1
60482500: global: Predictor bit: 0	 Opcode: 7
60482500: global: CGRA: NOOP.Execute()
60482500: global: Distance is: 0
60482500: system.cpu: Cond Reg = 1
60482500: system.cpu: Conditional reg is 1 : Len = 7
60482500: system.cpu: Ins: 6306136064, 177e00000 @ PE 2
60482500: global: Predictor bit: 0	 Opcode: 7
60482500: global: CGRA: NOOP.Execute()
60482500: global: Distance is: 0
60482500: system.cpu: Cond Reg = 1
60482500: system.cpu: Conditional reg is 1 : Len = 7
60482500: system.cpu: Ins: 6306136064, 177e00000 @ PE 3
60482500: global: Predictor bit: 0	 Opcode: 7
60482500: global: CGRA: NOOP.Execute()
60482500: global: Distance is: 0
60482500: system.cpu: Cond Reg = 1
60482500: system.cpu: Conditional reg is 1 : Len = 7
60482500: system.cpu: Ins: 6306136064, 177e00000 @ PE 4
60482500: global: Predictor bit: 0	 Opcode: 7
60482500: global: CGRA: NOOP.Execute()
60482500: global: Distance is: 0
60482500: system.cpu: Cond Reg = 1
60482500: system.cpu: Conditional reg is 1 : Len = 7
60482500: system.cpu: Ins: 6306136064, 177e00000 @ PE 5
60482500: global: Predictor bit: 0	 Opcode: 7
60482500: global: CGRA: NOOP.Execute()
60482500: global: Distance is: 0
60482500: system.cpu: Cond Reg = 1
60482500: system.cpu: Conditional reg is 1 : Len = 7
60482500: system.cpu: Ins: 6306136064, 177e00000 @ PE 6
60482500: global: Predictor bit: 0	 Opcode: 7
60482500: global: CGRA: NOOP.Execute()
60482500: global: Distance is: 0
60482500: system.cpu: Cond Reg = 1
60482500: system.cpu: Conditional reg is 1 : Len = 7
60482500: system.cpu: Ins: 6306136064, 177e00000 @ PE 7
60482500: global: Predictor bit: 0	 Opcode: 7
60482500: global: CGRA: NOOP.Execute()
60482500: global: Distance is: 0
60482500: system.cpu: Cond Reg = 1
60482500: system.cpu: Conditional reg is 1 : Len = 7
60482500: system.cpu: Ins: 6306136064, 177e00000 @ PE 8
60482500: global: Predictor bit: 0	 Opcode: 7
60482500: global: CGRA: NOOP.Execute()
60482500: global: Distance is: 0
60482500: system.cpu: Cond Reg = 1
60482500: system.cpu: Conditional reg is 1 : Len = 7
60482500: system.cpu: Ins: 6306136064, 177e00000 @ PE 9
60482500: global: Predictor bit: 0	 Opcode: 7
60482500: global: CGRA: NOOP.Execute()
60482500: global: Distance is: 0
60482500: system.cpu: Cond Reg = 1
60482500: system.cpu: Conditional reg is 1 : Len = 7
60482500: system.cpu: Ins: 6306136064, 177e00000 @ PE 10
60482500: global: Predictor bit: 0	 Opcode: 7
60482500: global: CGRA: NOOP.Execute()
60482500: global: Distance is: 0
60482500: system.cpu: Cond Reg = 1
60482500: system.cpu: Conditional reg is 1 : Len = 7
60482500: system.cpu: Ins: 6306136064, 177e00000 @ PE 11
60482500: global: Predictor bit: 0	 Opcode: 7
60482500: global: CGRA: NOOP.Execute()
60482500: global: Distance is: 0
60482500: system.cpu: Cond Reg = 1
60482500: system.cpu: Conditional reg is 1 : Len = 7
60482500: system.cpu: Ins: 6306136064, 177e00000 @ PE 12
60482500: global: Predictor bit: 0	 Opcode: 7
60482500: global: CGRA: NOOP.Execute()
60482500: global: Distance is: 0
60482500: system.cpu: Cond Reg = 1
60482500: system.cpu: Conditional reg is 1 : Len = 7
60482500: system.cpu: Ins: 4391518208, 105c14000 @ PE 13
60482500: global: Predictor bit: 0	 Opcode: 0
60482500: global: 
Input1 = 5	Input2 = 0
60482500: global: 
******** SUM IN THIS PE 5************
60482500: global: 
WRITE: REG NUMBER: 2 dist: 0
60482500: global: R0: 5	R1: 0	R2: 5	R3: 0
60482500: global: 
WRITE: FPREG NUMBER: 2 dist: 0
60482500: global: FPR0: 5	FPR1: 0	FPR2: 5	FPR3: 0
60482500: global: Writing output 5 to register 2
60482500: global: Distance is: 0
60482500: system.cpu: Cond Reg = 1
60482500: global: CGRAPE.cpp::getController_Reg: Controller_Reg = 1
60482500: system.cpu: Conditional reg is 1 : Len = 7
60482500: system.cpu: Ins: 6306136064, 177e00000 @ PE 14
60482500: global: Predictor bit: 0	 Opcode: 7
60482500: global: CGRA: NOOP.Execute()
60482500: global: Distance is: 0
60482500: system.cpu: Cond Reg = 1
60482500: system.cpu: Conditional reg is 1 : Len = 7
60482500: system.cpu: Ins: 6306136064, 177e00000 @ PE 15
60482500: global: Predictor bit: 0	 Opcode: 7
60482500: global: CGRA: NOOP.Execute()
60482500: global: Distance is: 0
60482500: system.cpu: Cond Reg = 1
60482500: system.cpu: Conditional reg is 1 : Len = 7
60482500: system.cpu: Conditional reg is 1 : Len = 7

************* MEM READ *************
Row: 3 - address: 632392 - data: 5
60482500: system.cpu: CGRA advanceTime complete.
60482500: system.cpu: *******IN ADVANCE PC******
60482500: system.cpu: build/ARM/cpu/atomiccgra/atomiccgra.cc,CGRA_advancePC,1761,PC:a60e8
60482500: system.cpu: Passed Complete Drain().
60482500: system.cpu: Make latency status=1.
60482500: system.cpu: Inside status idle.
60482500: system.cpu: Exiting schedule events
60482500: system.cpu: We are here after Execution
60483000: system.cpu: Inside CGRA Execution else statement.
60483000: system.cpu: Inside CGRA_Execution block.
60483000: system.cpu: 
CALL IN NOW CGRA_Execution.
60483000: system.cpu: 

 ~~~~~~ CGRA_Execution @ numCycles = 12 ~~~~~~~
60483000: system.cpu: Ins: 6306136064, 177e00000 @ PE 0
60483000: global: Predictor bit: 0	 Opcode: 7
60483000: global: CGRA: NOOP.Execute()
60483000: global: Distance is: 0
60483000: system.cpu: Cond Reg = 1
60483000: system.cpu: Conditional reg is 1 : Len = 6
60483000: system.cpu: Ins: 6306136064, 177e00000 @ PE 1
60483000: global: Predictor bit: 0	 Opcode: 7
60483000: global: CGRA: NOOP.Execute()
60483000: global: Distance is: 0
60483000: system.cpu: Cond Reg = 1
60483000: system.cpu: Conditional reg is 1 : Len = 6
60483000: system.cpu: Ins: 6306136064, 177e00000 @ PE 2
60483000: global: Predictor bit: 0	 Opcode: 7
60483000: global: CGRA: NOOP.Execute()
60483000: global: Distance is: 0
60483000: system.cpu: Cond Reg = 1
60483000: system.cpu: Conditional reg is 1 : Len = 6
60483000: system.cpu: Ins: 6306136064, 177e00000 @ PE 3
60483000: global: Predictor bit: 0	 Opcode: 7
60483000: global: CGRA: NOOP.Execute()
60483000: global: Distance is: 0
60483000: system.cpu: Cond Reg = 1
60483000: system.cpu: Conditional reg is 1 : Len = 6
60483000: system.cpu: Ins: 6306136064, 177e00000 @ PE 4
60483000: global: Predictor bit: 0	 Opcode: 7
60483000: global: CGRA: NOOP.Execute()
60483000: global: Distance is: 0
60483000: system.cpu: Cond Reg = 1
60483000: system.cpu: Conditional reg is 1 : Len = 6
60483000: system.cpu: Ins: 6306136064, 177e00000 @ PE 5
60483000: global: Predictor bit: 0	 Opcode: 7
60483000: global: CGRA: NOOP.Execute()
60483000: global: Distance is: 0
60483000: system.cpu: Cond Reg = 1
60483000: system.cpu: Conditional reg is 1 : Len = 6
60483000: system.cpu: Ins: 6306136064, 177e00000 @ PE 6
60483000: global: Predictor bit: 0	 Opcode: 7
60483000: global: CGRA: NOOP.Execute()
60483000: global: Distance is: 0
60483000: system.cpu: Cond Reg = 1
60483000: system.cpu: Conditional reg is 1 : Len = 6
60483000: system.cpu: Ins: 6306136064, 177e00000 @ PE 7
60483000: global: Predictor bit: 0	 Opcode: 7
60483000: global: CGRA: NOOP.Execute()
60483000: global: Distance is: 0
60483000: system.cpu: Cond Reg = 1
60483000: system.cpu: Conditional reg is 1 : Len = 6
60483000: system.cpu: Ins: 6306136064, 177e00000 @ PE 8
60483000: global: Predictor bit: 0	 Opcode: 7
60483000: global: CGRA: NOOP.Execute()
60483000: global: Distance is: 0
60483000: system.cpu: Cond Reg = 1
60483000: system.cpu: Conditional reg is 1 : Len = 6
60483000: system.cpu: Ins: 6306136064, 177e00000 @ PE 9
60483000: global: Predictor bit: 0	 Opcode: 7
60483000: global: CGRA: NOOP.Execute()
60483000: global: Distance is: 0
60483000: system.cpu: Cond Reg = 1
60483000: system.cpu: Conditional reg is 1 : Len = 6
60483000: system.cpu: Ins: 6306136064, 177e00000 @ PE 10
60483000: global: Predictor bit: 0	 Opcode: 7
60483000: global: CGRA: NOOP.Execute()
60483000: global: Distance is: 0
60483000: system.cpu: Cond Reg = 1
60483000: system.cpu: Conditional reg is 1 : Len = 6
60483000: system.cpu: Ins: 6306136064, 177e00000 @ PE 11
60483000: global: Predictor bit: 0	 Opcode: 7
60483000: global: CGRA: NOOP.Execute()
60483000: global: Distance is: 0
60483000: system.cpu: Cond Reg = 1
60483000: system.cpu: Conditional reg is 1 : Len = 6
60483000: system.cpu: Ins: 6306136064, 177e00000 @ PE 12
60483000: global: Predictor bit: 0	 Opcode: 7
60483000: global: CGRA: NOOP.Execute()
60483000: global: Distance is: 0
60483000: system.cpu: Cond Reg = 1
60483000: system.cpu: Conditional reg is 1 : Len = 6
60483000: system.cpu: Ins: 6306136064, 177e00000 @ PE 13
60483000: global: Predictor bit: 0	 Opcode: 7
60483000: global: CGRA: NOOP.Execute()
60483000: global: Distance is: 0
60483000: system.cpu: Cond Reg = 1
60483000: system.cpu: Conditional reg is 1 : Len = 6
60483000: system.cpu: Ins: 6306136064, 177e00000 @ PE 14
60483000: global: Predictor bit: 0	 Opcode: 7
60483000: global: CGRA: NOOP.Execute()
60483000: global: Distance is: 0
60483000: system.cpu: Cond Reg = 1
60483000: system.cpu: Conditional reg is 1 : Len = 6
60483000: system.cpu: Ins: 6306136064, 177e00000 @ PE 15
60483000: global: Predictor bit: 0	 Opcode: 7
60483000: global: CGRA: NOOP.Execute()
60483000: global: Distance is: 0
60483000: system.cpu: Cond Reg = 1
60483000: system.cpu: Conditional reg is 1 : Len = 6
60483000: system.cpu: Conditional reg is 1 : Len = 6

************* MEM READ *************
Row: 3 - address: 632392 - data: 5
60483000: system.cpu: CGRA advanceTime complete.
60483000: system.cpu: *******IN ADVANCE PC******
60483000: system.cpu: build/ARM/cpu/atomiccgra/atomiccgra.cc,CGRA_advancePC,1761,PC:a6168
60483000: system.cpu: Passed Complete Drain().
60483000: system.cpu: Make latency status=1.
60483000: system.cpu: Inside status idle.
60483000: system.cpu: Exiting schedule events
60483000: system.cpu: We are here after Execution
60483500: system.cpu: Inside CGRA Execution else statement.
60483500: system.cpu: Inside CGRA_Execution block.
60483500: system.cpu: 
CALL IN NOW CGRA_Execution.
60483500: system.cpu: 

 ~~~~~~ CGRA_Execution @ numCycles = 13 ~~~~~~~
60483500: system.cpu: Ins: 6306136064, 177e00000 @ PE 0
60483500: global: Predictor bit: 0	 Opcode: 7
60483500: global: CGRA: NOOP.Execute()
60483500: global: Distance is: 0
60483500: system.cpu: Cond Reg = 1
60483500: system.cpu: Conditional reg is 1 : Len = 5
60483500: system.cpu: Ins: 6306136064, 177e00000 @ PE 1
60483500: global: Predictor bit: 0	 Opcode: 7
60483500: global: CGRA: NOOP.Execute()
60483500: global: Distance is: 0
60483500: system.cpu: Cond Reg = 1
[...]
60492500: system.cpu: Cond Reg = 1
60492500: system.cpu: Conditional reg is 1 : Len = 1
60492500: system.cpu: Ins: 6306136064, 177e00000 @ PE 6
60492500: global: Predictor bit: 0	 Opcode: 7
60492500: global: CGRA: NOOP.Execute()
60492500: global: Distance is: 0
60492500: system.cpu: Cond Reg = 1
60492500: system.cpu: Conditional reg is 1 : Len = 1
60492500: system.cpu: Ins: 6306136064, 177e00000 @ PE 7
60492500: global: Predictor bit: 0	 Opcode: 7
60492500: global: CGRA: NOOP.Execute()
60492500: global: Distance is: 0
60492500: system.cpu: Cond Reg = 1
60492500: system.cpu: Conditional reg is 1 : Len = 1
60492500: system.cpu: Ins: 4827643904, 11fc00000 @ PE 8
60492500: global: Predictor bit: 1	 Opcode: 1
60492500: global: 
Input1 = 512	Input2 = 0
60492500: global: 
******** LDI IN THIS PE 512************
60492500: global: Distance is: 0
60492500: system.cpu: Cond Reg = 1
60492500: global: CGRAPE.cpp::getController_Reg: Controller_Reg = 1
60492500: system.cpu: Conditional reg is 1 : Len = 1
60492500: system.cpu: Ins: 4827643904, 11fc00000 @ PE 9
60492500: global: Predictor bit: 1	 Opcode: 1
60492500: global: 
Input1 = 9	Input2 = 0
60492500: global: 
******** LDI IN THIS PE 9************
60492500: global: Distance is: 0
60492500: system.cpu: Cond Reg = 1
60492500: global: CGRAPE.cpp::getController_Reg: Controller_Reg = 1
60492500: system.cpu: Conditional reg is 1 : Len = 1
60492500: system.cpu: Ins: 6306136064, 177e00000 @ PE 10
60492500: global: Predictor bit: 0	 Opcode: 7
60492500: global: CGRA: NOOP.Execute()
60492500: global: Distance is: 0
60492500: system.cpu: Cond Reg = 1
60492500: system.cpu: Conditional reg is 1 : Len = 1
60492500: system.cpu: Ins: 6306136064, 177e00000 @ PE 11
60492500: global: Predictor bit: 0	 Opcode: 7
60492500: global: CGRA: NOOP.Execute()
60492500: global: Distance is: 0
60492500: system.cpu: Cond Reg = 1
60492500: system.cpu: Conditional reg is 1 : Len = 1
60492500: system.cpu: Ins: 6306136064, 177e00000 @ PE 12
60492500: global: Predictor bit: 0	 Opcode: 7
60492500: global: CGRA: NOOP.Execute()
60492500: global: Distance is: 0
60492500: system.cpu: Cond Reg = 1
60492500: system.cpu: Conditional reg is 1 : Len = 1
60492500: system.cpu: Ins: 7566786560, 1c3040000 @ PE 13
60492500: global: Predictor bit: 0	 Opcode: 12
60492500: global: 
Input1 = 9	Input2 = 5
60492500: global: 
******** EQUALS IN THIS PE 0************
60492500: global: CGRAPE.cpp::IExecute: Controller_Reg = 1
60492500: global: Distance is: 0
60492500: system.cpu: Cond Reg = 1
60492500: global: CGRAPE.cpp::getController_Reg: Controller_Reg = 1
60492500: system.cpu: Conditional reg is 1 : Len = 1
60492500: system.cpu: Ins: 6306136064, 177e00000 @ PE 14
60492500: global: Predictor bit: 0	 Opcode: 7
60492500: global: CGRA: NOOP.Execute()
60492500: global: Distance is: 0
60492500: system.cpu: Cond Reg = 1
60492500: system.cpu: Conditional reg is 1 : Len = 1
60492500: system.cpu: Ins: 6306136064, 177e00000 @ PE 15
60492500: global: Predictor bit: 0	 Opcode: 7
60492500: global: CGRA: NOOP.Execute()
60492500: global: Distance is: 0
60492500: system.cpu: Cond Reg = 1
60492500: system.cpu: Conditional reg is 1 : Len = 1
60492500: system.cpu: Conditional reg is 1 : Len = 1

************* MEM READ *************
Row: 3 - address: 632392 - data: 5
60492500: system.cpu: CGRA advanceTime complete.
60492500: system.cpu: *******IN ADVANCE PC******
60492500: system.cpu: build/ARM/cpu/atomiccgra/atomiccgra.cc,CGRA_advancePC,1761,PC:a64f0
60492500: system.cpu: Passed Complete Drain().
60492500: system.cpu: Make latency status=1.
60492500: system.cpu: Inside status idle.
60492500: system.cpu: Exiting schedule events
60492500: system.cpu: We are here after Execution
60493000: system.cpu: Inside CGRA Execution else statement.
60493000: system.cpu: Inside CGRA_Execution block.
60493000: system.cpu: 
CALL IN NOW CGRA_Execution.
60493000: system.cpu: 

 ~~~~~~ CGRA_Execution @ numCycles = 32 ~~~~~~~
60493000: system.cpu: Ins: 6306136064, 177e00000 @ PE 0
60493000: global: Predictor bit: 0	 Opcode: 7
60493000: global: CGRA: NOOP.Execute()
60493000: global: Distance is: 0
60493000: system.cpu: Cond Reg = 1
60493000: system.cpu: Conditional reg is 1 : Len = 0
60493000: system.cpu: Ins: 6306136064, 177e00000 @ PE 1
60493000: global: Predictor bit: 0	 Opcode: 7
60493000: global: CGRA: NOOP.Execute()
60493000: global: Distance is: 0
60493000: system.cpu: Cond Reg = 1
60493000: system.cpu: Conditional reg is 1 : Len = 0
60493000: system.cpu: Ins: 6306136064, 177e00000 @ PE 2
60493000: global: Predictor bit: 0	 Opcode: 7
60493000: global: CGRA: NOOP.Execute()
60493000: global: Distance is: 0
60493000: system.cpu: Cond Reg = 1
60493000: system.cpu: Conditional reg is 1 : Len = 0
60493000: system.cpu: Ins: 6306136064, 177e00000 @ PE 3
60493000: global: Predictor bit: 0	 Opcode: 7
60493000: global: CGRA: NOOP.Execute()
60493000: global: Distance is: 0
60493000: system.cpu: Cond Reg = 1
60493000: system.cpu: Conditional reg is 1 : Len = 0
60493000: system.cpu: Ins: 6306136064, 177e00000 @ PE 4
60493000: global: Predictor bit: 0	 Opcode: 7
60493000: global: CGRA: NOOP.Execute()
60493000: global: Distance is: 0
60493000: system.cpu: Cond Reg = 1
60493000: system.cpu: Conditional reg is 1 : Len = 0
60493000: system.cpu: Ins: 6306136064, 177e00000 @ PE 5
60493000: global: Predictor bit: 0	 Opcode: 7
60493000: global: CGRA: NOOP.Execute()
60493000: global: Distance is: 0
60493000: system.cpu: Cond Reg = 1
60493000: system.cpu: Conditional reg is 1 : Len = 0
60493000: system.cpu: Ins: 6306136064, 177e00000 @ PE 6
60493000: global: Predictor bit: 0	 Opcode: 7
60493000: global: CGRA: NOOP.Execute()
60493000: global: Distance is: 0
60493000: system.cpu: Cond Reg = 1
60493000: system.cpu: Conditional reg is 1 : Len = 0
60493000: system.cpu: Ins: 6306136064, 177e00000 @ PE 7
60493000: global: Predictor bit: 0	 Opcode: 7
60493000: global: CGRA: NOOP.Execute()
60493000: global: Distance is: 0
60493000: system.cpu: Cond Reg = 1
60493000: system.cpu: Conditional reg is 1 : Len = 0
60493000: system.cpu: Ins: 6572474369, 187c00001 @ PE 8
60493000: global: Predictor bit: 0	 Opcode: 8
60493000: global: 
Input1 = 512	Input2 = 1
60493000: global: 
******** ASL IN THIS PE 1024************
60493000: global: Distance is: 0
60493000: system.cpu: Cond Reg = 1
60493000: global: CGRAPE.cpp::getController_Reg: Controller_Reg = 1
60493000: system.cpu: Conditional reg is 1 : Len = 0
60493000: system.cpu: Ins: 4424990721, 107c00001 @ PE 9
60493000: global: Predictor bit: 0	 Opcode: 0
60493000: global: 
Input1 = 9	Input2 = 1
60493000: global: 
******** SUM IN THIS PE 10************
60493000: global: Distance is: 0
60493000: system.cpu: Cond Reg = 1
60493000: global: CGRAPE.cpp::getController_Reg: Controller_Reg = 1
60493000: system.cpu: Conditional reg is 1 : Len = 0
60493000: system.cpu: Ins: 6306136064, 177e00000 @ PE 10
60493000: global: Predictor bit: 0	 Opcode: 7
60493000: global: CGRA: NOOP.Execute()
60493000: global: Distance is: 0
60493000: system.cpu: Cond Reg = 1
60493000: system.cpu: Conditional reg is 1 : Len = 0
60493000: system.cpu: Ins: 6306136064, 177e00000 @ PE 11
60493000: global: Predictor bit: 0	 Opcode: 7
60493000: global: CGRA: NOOP.Execute()
60493000: global: Distance is: 0
60493000: system.cpu: Cond Reg = 1
60493000: system.cpu: Conditional reg is 1 : Len = 0
60493000: system.cpu: Ins: 6306136064, 177e00000 @ PE 12
60493000: global: Predictor bit: 0	 Opcode: 7
60493000: global: CGRA: NOOP.Execute()
60493000: global: Distance is: 0
60493000: system.cpu: Cond Reg = 1
60493000: system.cpu: Conditional reg is 1 : Len = 0
60493000: system.cpu: Ins: 6306136064, 177e00000 @ PE 13
60493000: global: Predictor bit: 0	 Opcode: 7
60493000: global: CGRA: NOOP.Execute()
60493000: global: Distance is: 0
60493000: system.cpu: Cond Reg = 1
60493000: system.cpu: Conditional reg is 1 : Len = 0
60493000: system.cpu: Ins: 6306136064, 177e00000 @ PE 14
60493000: global: Predictor bit: 0	 Opcode: 7
60493000: global: CGRA: NOOP.Execute()
60493000: global: Distance is: 0
60493000: system.cpu: Cond Reg = 1
60493000: system.cpu: Conditional reg is 1 : Len = 0
60493000: system.cpu: Ins: 6306136064, 177e00000 @ PE 15
60493000: global: Predictor bit: 0	 Opcode: 7
60493000: global: CGRA: NOOP.Execute()
60493000: global: Distance is: 0
60493000: system.cpu: Cond Reg = 1
60493000: system.cpu: Conditional reg is 1 : Len = 0
60493000: system.cpu: Conditional reg is 0 : Len = 0

************* MEM READ *************
Row: 3 - address: 632392 - data: 5
60493000: system.cpu: CGRA advanceTime complete.
60493000: system.cpu: *******IN ADVANCE PC******
60493000: system.cpu: build/ARM/cpu/atomiccgra/atomiccgra.cc,CGRA_advancePC,1761,PC:a6570
60493000: system.cpu: 
KERNEL->EPILOG
60493000: system.cpu: Passed Complete Drain().
60493000: system.cpu: Make latency status=1.
60493000: system.cpu: Inside status idle.
60493000: system.cpu: Exiting schedule events
60493000: system.cpu: We are here after Execution
60493500: system.cpu: Inside CGRA Execution else statement.
60493500: system.cpu: Inside CGRA_Execution block.
60493500: system.cpu: 
CALL IN NOW CGRA_Execution.
60493500: system.cpu: 

 ~~~~~~ CGRA_Execution @ numCycles = 33 ~~~~~~~
60493500: global: 
******** DB INPUT2 ReadAddress = 2************
60493500: system.cpu: Ins: 6306136064, 177e00000 @ PE 0
60493500: global: Predictor bit: 0	 Opcode: 7
60493500: global: CGRA: NOOP.Execute()
60493500: global: Distance is: 0
60493500: system.cpu: Cond Reg = 0
60493500: system.cpu: Conditional reg is 0 : Len = 1
60493500: system.cpu: Ins: 6306136064, 177e00000 @ PE 1
60493500: global: Predictor bit: 0	 Opcode: 7
60493500: global: CGRA: NOOP.Execute()
60493500: global: Distance is: 0
60493500: system.cpu: Cond Reg = 0
60493500: system.cpu: Conditional reg is 0 : Len = 1
60493500: system.cpu: Ins: 6306136064, 177e00000 @ PE 2
60493500: global: Predictor bit: 0	 Opcode: 7
60493500: global: CGRA: NOOP.Execute()
60493500: global: Distance is: 0
60493500: system.cpu: Cond Reg = 0
60493500: system.cpu: Conditional reg is 0 : Len = 1
60493500: system.cpu: Ins: 6306136064, 177e00000 @ PE 3
60493500: global: Predictor bit: 0	 Opcode: 7
60493500: global: CGRA: NOOP.Execute()
60493500: global: Distance is: 0
60493500: system.cpu: Cond Reg = 0
60493500: system.cpu: Conditional reg is 0 : Len = 1
60493500: system.cpu: Ins: 6306136064, 177e00000 @ PE 4
60493500: global: Predictor bit: 0	 Opcode: 7
60493500: global: CGRA: NOOP.Execute()
60493500: global: Distance is: 0
60493500: system.cpu: Cond Reg = 0
60493500: system.cpu: Conditional reg is 0 : Len = 1
60493500: system.cpu: Ins: 6306136064, 177e00000 @ PE 5
60493500: global: Predictor bit: 0	 Opcode: 7
60493500: global: CGRA: NOOP.Execute()
60493500: global: Distance is: 0
60493500: system.cpu: Cond Reg = 0
60493500: system.cpu: Conditional reg is 0 : Len = 1
60493500: system.cpu: Ins: 6306136064, 177e00000 @ PE 6
60493500: global: Predictor bit: 0	 Opcode: 7
60493500: global: CGRA: NOOP.Execute()
60493500: global: Distance is: 0
60493500: system.cpu: Cond Reg = 0
60493500: system.cpu: Conditional reg is 0 : Len = 1
60493500: system.cpu: Ins: 6306136064, 177e00000 @ PE 7
60493500: global: Predictor bit: 0	 Opcode: 7
60493500: global: CGRA: NOOP.Execute()
60493500: global: Distance is: 0
60493500: system.cpu: Cond Reg = 0
60493500: system.cpu: Conditional reg is 0 : Len = 1
60493500: system.cpu: Ins: 6306136064, 177e00000 @ PE 8
60493500: global: Predictor bit: 0	 Opcode: 7
60493500: global: CGRA: NOOP.Execute()
60493500: global: Distance is: 0
60493500: system.cpu: Cond Reg = 0
60493500: system.cpu: Conditional reg is 0 : Len = 1
60493500: system.cpu: Ins: 6306136064, 177e00000 @ PE 9
60493500: global: Predictor bit: 0	 Opcode: 7
60493500: global: CGRA: NOOP.Execute()
60493500: global: Distance is: 0
60493500: system.cpu: Cond Reg = 0
60493500: system.cpu: Conditional reg is 0 : Len = 1
60493500: system.cpu: Ins: 6306136064, 177e00000 @ PE 10
60493500: global: Predictor bit: 0	 Opcode: 7
60493500: global: CGRA: NOOP.Execute()
60493500: global: Distance is: 0
60493500: system.cpu: Cond Reg = 0
60493500: system.cpu: Conditional reg is 0 : Len = 1
60493500: system.cpu: Ins: 6306136064, 177e00000 @ PE 11
60493500: global: Predictor bit: 0	 Opcode: 7
60493500: global: CGRA: NOOP.Execute()
60493500: global: Distance is: 0
60493500: system.cpu: Cond Reg = 0
60493500: system.cpu: Conditional reg is 0 : Len = 1
60493500: system.cpu: Ins: 6306136064, 177e00000 @ PE 12
60493500: global: Predictor bit: 0	 Opcode: 7
60493500: global: CGRA: NOOP.Execute()
60493500: global: Distance is: 0
60493500: system.cpu: Cond Reg = 0
60493500: system.cpu: Conditional reg is 0 : Len = 1
60493500: system.cpu: Ins: 7566786560, 1c3040000 @ PE 13
60493500: global: Predictor bit: 0	 Opcode: 12
60493500: global: 
Input1 = 10	Input2 = 5
60493500: global: 
******** EQUALS IN THIS PE 0************
60493500: global: CGRAPE.cpp::IExecute: Controller_Reg = 1
60493500: global: Distance is: 0
60493500: system.cpu: Cond Reg = 0
60493500: global: CGRAPE.cpp::getController_Reg: Controller_Reg = 1
60493500: system.cpu: Conditional reg is 0 : Len = 1
60493500: system.cpu: Ins: 6306136064, 177e00000 @ PE 14
60493500: global: Predictor bit: 0	 Opcode: 7
60493500: global: CGRA: NOOP.Execute()
60493500: global: Distance is: 0
60493500: system.cpu: Cond Reg = 0
60493500: system.cpu: Conditional reg is 0 : Len = 1
60493500: system.cpu: Ins: 6306136064, 177e00000 @ PE 15
60493500: global: Predictor bit: 0	 Opcode: 7
60493500: global: CGRA: NOOP.Execute()
60493500: global: Distance is: 0
60493500: system.cpu: Cond Reg = 0
60493500: system.cpu: Conditional reg is 0 : Len = 1
60493500: system.cpu: Conditional reg is 0 : Len = 1

************* MEM READ *************
Row: 3 - address: 632392 - data: 5
60493500: system.cpu: CGRA advanceTime complete.
60493500: system.cpu: *******IN ADVANCE PC******
60493500: system.cpu: build/ARM/cpu/atomiccgra/atomiccgra.cc,CGRA_advancePC,1761,PC:a5ae0
60493500: system.cpu: Passed Complete Drain().
60493500: system.cpu: Make latency status=1.
60493500: system.cpu: Inside status idle.
60493500: system.cpu: Exiting schedule events
60493500: system.cpu: We are here after Execution
60494000: system.cpu: Inside CGRA Execution else statement.
60494000: system.cpu: Inside CGRA_Execution block.
60494000: system.cpu: 
CALL IN NOW CGRA_Execution.
60494000: system.cpu: 

 ~~~~~~ CGRA_Execution @ numCycles = 34 ~~~~~~~
60494000: global: 
******** DB INPUT1 ReadAddress = 0************
60494000: system.cpu: Ins: 6306136064, 177e00000 @ PE 0
60494000: global: Predictor bit: 0	 Opcode: 7
60494000: global: CGRA: NOOP.Execute()
60494000: global: Distance is: 0
60494000: system.cpu: Cond Reg = 0
60494000: system.cpu: Conditional reg is 0 : Len = 0
60494000: system.cpu: Ins: 6306136064, 177e00000 @ PE 1
60494000: global: Predictor bit: 0	 Opcode: 7
60494000: global: CGRA: NOOP.Execute()
60494000: global: Distance is: 0
60494000: system.cpu: Cond Reg = 0
60494000: system.cpu: Conditional reg is 0 : Len = 0
60494000: system.cpu: Ins: 6306136064, 177e00000 @ PE 2
60494000: global: Predictor bit: 0	 Opcode: 7
60494000: global: CGRA: NOOP.Execute()
60494000: global: Distance is: 0
60494000: system.cpu: Cond Reg = 0
60494000: system.cpu: Conditional reg is 0 : Len = 0
60494000: system.cpu: Ins: 6306136064, 177e00000 @ PE 3
60494000: global: Predictor bit: 0	 Opcode: 7
60494000: global: CGRA: NOOP.Execute()
60494000: global: Distance is: 0
60494000: system.cpu: Cond Reg = 0
60494000: system.cpu: Conditional reg is 0 : Len = 0
60494000: system.cpu: Ins: 6306136064, 177e00000 @ PE 4
60494000: global: Predictor bit: 0	 Opcode: 7
60494000: global: CGRA: NOOP.Execute()
60494000: global: Distance is: 0
60494000: system.cpu: Cond Reg = 0
60494000: system.cpu: Conditional reg is 0 : Len = 0
60494000: system.cpu: Ins: 6306136064, 177e00000 @ PE 5
60494000: global: Predictor bit: 0	 Opcode: 7
60494000: global: CGRA: NOOP.Execute()
60494000: global: Distance is: 0
60494000: system.cpu: Cond Reg = 0
60494000: system.cpu: Conditional reg is 0 : Len = 0
60494000: system.cpu: Ins: 6306136064, 177e00000 @ PE 6
60494000: global: Predictor bit: 0	 Opcode: 7
60494000: global: CGRA: NOOP.Execute()
60494000: global: Distance is: 0
60494000: system.cpu: Cond Reg = 0
60494000: system.cpu: Conditional reg is 0 : Len = 0
60494000: system.cpu: Ins: 6306136064, 177e00000 @ PE 7
60494000: global: Predictor bit: 0	 Opcode: 7
60494000: global: CGRA: NOOP.Execute()
60494000: global: Distance is: 0
60494000: system.cpu: Cond Reg = 0
60494000: system.cpu: Conditional reg is 0 : Len = 0
60494000: system.cpu: Ins: 4424994816, 107c01000 @ PE 8
60494000: global: Predictor bit: 0	 Opcode: 0
60494000: global: 
Input1 = 1024	Input2 = 0
60494000: global: 
******** SUM IN THIS PE 1024************
60494000: global: 
******** DB Output 1024************
60494000: global: Distance is: 0
60494000: system.cpu: Cond Reg = 0
60494000: global: CGRAPE.cpp::getController_Reg: Controller_Reg = 1
60494000: system.cpu: Conditional reg is 0 : Len = 0
60494000: system.cpu: Ins: 6306136064, 177e00000 @ PE 9
60494000: global: Predictor bit: 0	 Opcode: 7
60494000: global: CGRA: NOOP.Execute()
60494000: global: Distance is: 0
60494000: system.cpu: Cond Reg = 0
60494000: system.cpu: Conditional reg is 0 : Len = 0
60494000: system.cpu: Ins: 6052388868, 168c02004 @ PE 10
60494000: global: Predictor bit: 1	 Opcode: 6
60494000: global: 
Input1 = 632404	Input2 = 4
60494000: global: 
******** ADDRESS GENERATED IN THIS PE 632404************
60494000: global: 
*********Setting Address 9a654 ******
60494000: global: Distance is: 0
60494000: system.cpu: Cond Reg = 0
60494000: global: CGRAPE.cpp::getController_Reg: Controller_Reg = 1
60494000: system.cpu: Conditional reg is 0 : Len = 0
60494000: system.cpu: Ins: 6306136064, 177e00000 @ PE 11
60494000: global: Predictor bit: 0	 Opcode: 7
60494000: global: CGRA: NOOP.Execute()
60494000: global: Distance is: 0
60494000: system.cpu: Cond Reg = 0
60494000: system.cpu: Conditional reg is 0 : Len = 0
60494000: system.cpu: Ins: 6306136064, 177e00000 @ PE 12
60494000: global: Predictor bit: 0	 Opcode: 7
60494000: global: CGRA: NOOP.Execute()
60494000: global: Distance is: 0
60494000: system.cpu: Cond Reg = 0
60494000: system.cpu: Conditional reg is 0 : Len = 0
60494000: system.cpu: Ins: 6306136064, 177e00000 @ PE 13
60494000: global: Predictor bit: 0	 Opcode: 7
60494000: global: CGRA: NOOP.Execute()
60494000: global: Distance is: 0
60494000: system.cpu: Cond Reg = 0
60494000: system.cpu: Conditional reg is 0 : Len = 0
60494000: system.cpu: Ins: 6306136064, 177e00000 @ PE 14
60494000: global: Predictor bit: 0	 Opcode: 7
60494000: global: CGRA: NOOP.Execute()
60494000: global: Distance is: 0
60494000: system.cpu: Cond Reg = 0
60494000: system.cpu: Conditional reg is 0 : Len = 0
60494000: system.cpu: Ins: 6306136064, 177e00000 @ PE 15
60494000: global: Predictor bit: 0	 Opcode: 7
60494000: global: CGRA: NOOP.Execute()
60494000: global: Distance is: 0
60494000: system.cpu: Cond Reg = 0
60494000: system.cpu: Conditional reg is 0 : Len = 0
60494000: system.cpu: Conditional reg is 0 : Len = 0
60494000: system.cpu: In Memwrite with membus: 1
60494000: system.cpu: In writing INT 1024	 to address:9a654	 -- &Data: 0x564efbd38618	 and uint: 

************* MEM READ *************
Row: 3 - address: 632392 - data: 5
60494000: system.cpu: CGRA advanceTime complete.
60494000: system.cpu: *******IN ADVANCE PC******
60494000: system.cpu: build/ARM/cpu/atomiccgra/atomiccgra.cc,CGRA_advancePC,1761,PC:a5b60
60494000: system.cpu: Passed Complete Drain().
60494000: system.cpu: Make latency status=1.
60494000: system.cpu: Inside status idle.
60494000: system.cpu: Exiting schedule events
60494000: system.cpu: We are here after Execution
60494500: system.cpu: Inside CGRA Execution else statement.
***** 2^6 = 1024 *****

deleting cgra
Exiting @ tick 62675000 because exiting with last active thread context
